152
# total energy = -1060.16248527 eVH     10.35389      5.87395      7.64558        -0.312354      0.101675      1.084852
H     10.62451     15.10445      7.64558         0.090595     -0.070383      0.892592
H     10.62451      5.87395     13.33282        -0.271959      0.073442     -0.784031
H     10.35389     15.10445     13.33282         0.097060     -0.302301     -0.822800
H      7.64558     10.35389      5.87395         0.895262     -0.204609      0.206936
H      7.64558     10.62451     15.10445         0.314359     -0.026861     -0.062746
H     13.33282     10.62451      5.87395        -0.886054      0.219597      0.220567
H     13.33282     10.35389     15.10445        -0.282744     -0.030393     -0.059401
H      5.87395      7.64558     10.35389         0.093002      0.422198     -0.010135
H     15.10445      7.64558     10.62451        -0.044903      0.437472     -0.028868
H      5.87395     13.33282     10.62451        -0.016085     -0.968822      0.079153
H     15.10445     13.33282     10.35389        -0.087509     -0.329336      0.001631
H      5.87395     10.35389      7.64558         0.318091      0.061821      0.371430
H     15.10445     10.62451      7.64558        -0.118984     -0.157658      0.668486
H      5.87395     10.62451     13.33282        -0.063548      0.451520     -0.603897
H     15.10445     10.35389     13.33282         0.227211     -0.633133     -0.883656
H     10.35389      7.64558      5.87395        -0.019812      0.499349      0.344971
H     10.62451      7.64558     15.10445         0.328514      0.786187     -0.008740
H     10.62451     13.33282      5.87395         0.149976     -0.569249      0.202834
H     10.35389     13.33282     15.10445         0.032947     -0.290165     -0.165307
H      7.64558      5.87395     10.35389         0.369926      0.113862      0.063362
H      7.64558     15.10445     10.62451         0.389610     -0.127896      0.179340
H     13.33282      5.87395     10.62451        -0.307033      0.137456     -0.014353
H     13.33282     15.10445     10.35389        -0.657823     -0.108987      0.138019
H     12.45634     12.45634     19.01126         0.259235      0.272398     -0.225896
H     19.01126     19.01126     19.01126        -0.248252     -0.267215     -0.244093
H     19.01126     12.45634     12.45634        -0.248908      0.271590      0.236837
H     12.45634     19.01126     12.45634         0.290102     -0.235028      0.235535
C     10.35284      5.61067      6.59456         0.400364     -0.416984     -1.356447
C     10.62556     15.36773      6.59456        -0.172149      0.609556     -0.660515
C     10.62556      5.61067     14.38384         0.365975     -0.273314      0.780275
C     10.35284     15.36773     14.38384        -0.205927      0.224663      1.027633
C      6.59456     10.35284      5.61067        -1.395135      0.032015     -0.226953
C      6.59456     10.62556     15.36773        -0.663656      0.065307      0.356289
C     14.38384     10.62556      5.61067         1.312972     -0.186784     -0.630612
C     14.38384     10.35284     15.36773         0.318416     -0.133582      0.355305
C      5.61067      6.59456     10.35284        -0.273519     -0.671904     -0.030837
C     15.36773      6.59456     10.62556         0.409745     -0.854856      0.027692
C      5.61067     14.38384     10.62556        -0.149294      1.193940     -0.216885
C     15.36773     14.38384     10.35284         0.501835      0.707973     -0.037344
C      5.61067     10.35284      6.59456        -0.370490     -0.103035     -0.773795
C     15.36773     10.62556      6.59456         0.400703      0.107390     -0.676329
C      5.61067     10.62556     14.38384        -0.404230     -0.162638      1.219816
C     15.36773     10.35284     14.38384         0.227131      0.227143      1.411570
C     10.35284      6.59456      5.61067        -0.069657     -0.745452     -0.544530
C     10.62556      6.59456     15.36773        -0.140717     -0.978434      0.375602
C     10.62556     14.38384      5.61067        -0.494835      0.385861     -0.738373
C     10.35284     14.38384     15.36773        -0.173862      0.731152      0.491781
C      6.59456      5.61067     10.35284        -0.561738     -0.336767      0.003512
C      6.59456     15.36773     10.62556        -0.363462      0.445065      0.066328
C     14.38384      5.61067     10.62556         0.435008     -0.310563      0.007755
C     14.38384     15.36773     10.35284         1.129334      0.483123     -0.079929
C     10.40319      3.19606      7.29314        -0.008220      0.794607     -0.339170
C     10.35913      4.25547      6.23373         0.024344     -0.377927      0.292652
C      0.08601      7.29314      7.29314        -0.018246     -0.383372     -0.504433
C      0.13007      6.23373      6.23373        -0.047400      0.875568      0.092817
C      0.08601      3.19606      3.19606        -0.006867      0.696353      0.259845
C      0.13007      4.25547      4.25547         0.047132     -0.267257     -0.548111
C     10.40319      7.29314      3.19606        -0.063802     -1.113881      0.626498
C     10.35913      6.23373      4.25547        -0.047466      0.347823     -0.204250
C      7.29314     10.40319      3.19606        -1.092836     -0.054790      0.202550
C      6.23373     10.35913      4.25547         0.380579      0.101955     -0.524726
C      7.29314      0.08601      7.29314        -0.486172      0.028714     -0.435832
C      6.23373      0.13007      6.23373         0.179475      0.121071      0.119389
C      3.19606      0.08601      3.19606         0.702529      0.022809      0.170109
C      4.25547      0.13007      4.25547        -0.173199     -0.051215     -0.365922
C      3.19606     10.40319      7.29314         0.377659     -0.027126     -0.952269
C      4.25547     10.35913      6.23373        -0.129593     -0.053912      0.115864
C      3.19606      7.29314     10.40319         0.616622     -0.398569      0.002537
C      4.25547      6.23373     10.35913        -0.114457      0.177976      0.010740
C      7.29314      7.29314      0.08601        -0.428974     -0.293111     -0.014976
C      6.23373      6.23373      0.13007         0.147608      0.154330     -0.063400
C      3.19606      3.19606      0.08601         0.293720      0.492903     -0.024642
C      4.25547      4.25547      0.13007        -0.404316     -0.240751     -0.030836
C      7.29314      3.19606     10.40319        -0.283337      0.593960     -0.009333
C      6.23373      4.25547     10.35913         0.016139     -0.093940      0.015612
O     10.43466      3.58206      8.50569        -0.026431      0.070556      0.300637
O     10.54374     17.39634      8.50569         0.063701     -0.122483      0.589728
O     10.54374      3.58206     12.47271         0.029106      0.101720     -0.397749
O     10.43466     17.39634     12.47271         0.094386     -0.062870     -0.437487
O      8.50569     10.43466      3.58206         0.734406     -0.073187      0.016739
O      8.50569     10.54374     17.39634         0.543792      0.063053     -0.104070
O     12.47271     10.54374      3.58206        -0.657292      0.113343      0.211015
O     12.47271     10.43466     17.39634        -0.282919      0.003683      0.037118
O      3.58206      8.50569     10.43466         0.033494      0.444063     -0.064094
O     17.39634      8.50569     10.54374        -0.054607      0.445857      0.056709
O      3.58206     12.47271     10.54374         0.104870     -0.588410      0.003866
O     17.39634     12.47271     10.43466        -0.183092     -0.741221     -0.047969
O      3.58206     10.43466      8.50569         0.207567     -0.060695      0.805660
O     17.39634     10.54374      8.50569        -0.068749      0.070665      0.482588
O      3.58206     10.54374     12.47271        -0.004438     -0.004463     -0.261595
O     17.39634     10.43466     12.47271         0.033492     -0.009905     -0.234127
O     10.43466      8.50569      3.58206        -0.107751      0.532704     -0.100558
O     10.54374      8.50569     17.39634         0.060378      0.512164     -0.083065
O     10.54374     12.47271      3.58206         0.102887     -0.638049      0.129081
O     10.43466     12.47271     17.39634        -0.064805     -0.701278     -0.281791
O      8.50569      3.58206     10.43466         0.396406      0.023176     -0.046657
O      8.50569     17.39634     10.54374         0.640090     -0.154483      0.046236
O     12.47271      3.58206     10.54374        -0.516090      0.121150      0.028694
O     12.47271     17.39634     10.43466        -0.624682     -0.123898      0.041454
O     11.90042     11.90042     19.56718        -0.278151     -0.303338      0.222574
O     19.56718     19.56718     19.56718         0.309787      0.321974      0.298133
O     19.56718     11.90042     11.90042         0.283595     -0.324974     -0.235288
O     11.90042     19.56718     11.90042        -0.314440      0.229458     -0.201378
O      9.45224      1.03696      9.45224        -0.076111      0.089809     -0.077341
O      1.03696      9.45224      9.45224         0.103165     -0.110635     -0.060289
O      1.03696      1.03696      1.03696         0.079003      0.054848      0.098395
O      9.45224      9.45224      1.03696        -0.059034     -0.125283      0.136933
Zr     10.48920      2.52580     10.48920         0.042874     -0.096287      0.122144
Zr     10.48920     18.45260     10.48920        -0.181505      0.247044     -0.360390
Zr     10.48920     10.48920      2.52580         0.113379      0.356100     -0.345482
Zr     10.48920     10.48920     18.45260        -0.080630     -0.261089      0.235540
Zr      2.52580     10.48920     10.48920        -0.241393      0.129116      0.245736
Zr     18.45260     10.48920     10.48920         0.195524     -0.137969     -0.025324
Pd      9.36037     14.30454      9.30840         0.004333      0.036073     -0.029772
Pd      8.59302     13.64610     13.04509         0.013288      0.003284      0.019263
Pd     12.02518     14.40148      8.74713         0.013162     -0.011138      0.016454
Pd     12.75022     12.87744     10.69129        -0.037021     -0.007795      0.040974
Pd     12.11979      7.19029     12.67587         0.003013     -0.010473     -0.002931
Pd     11.15418     14.90704     11.45031        -0.022545      0.029792     -0.017941
Pd     10.03032     12.55861     11.07982        -0.037465      0.031012     -0.027036
Pd     13.48058     12.15449      7.98534         0.008691      0.006254      0.010472
Pd     11.48064     11.54457      6.10782         0.006853      0.011464     -0.006265
Pd      7.94158      8.37525      7.52248        -0.001210     -0.027528     -0.004628
Pd      8.71819     11.75767      6.84425        -0.006886      0.001422     -0.009177
Pd     10.31897      9.45211      8.15259        -0.020534     -0.000994      0.012210
Pd      8.49530     14.46474      6.78844        -0.010267      0.005126     -0.021109
Pd     12.39552      9.02190      6.57304        -0.007082      0.024606      0.032075
Pd      9.71803      9.61085      5.57399         0.004538      0.006856      0.005338
Pd      6.82156      9.45590     12.14213         0.020563      0.009529      0.006926
Pd     12.18035      6.74580      7.95496         0.014139      0.007470      0.007544
Pd      5.91265     10.48292      9.69492        -0.004856     -0.008766      0.008782
Pd      7.55018      7.23898     13.40634         0.000661     -0.007563     -0.014072
Ir     11.72994      9.77299     13.06854        -0.011046     -0.017080      0.000291
Ir     13.54888      9.05785     11.47792        -0.010381      0.014137      0.012256
Ir      9.42114      8.86651     14.01144        -0.017843     -0.006598      0.003528
Ir     10.50517     11.00495     14.90467        -0.009617     -0.046287      0.068086
Ir      7.26987     12.01491     11.34125         0.003557     -0.005355      0.012866
Ir     14.64508     10.91793     10.16010        -0.017673      0.021774      0.037137
Ir     12.16156     10.57329      9.67706         0.007611     -0.005401     -0.008575
Ir      8.75568     11.00699     12.99021         0.016057      0.032464     -0.015977
Ir     10.10444      9.91858     11.16917        -0.003354      0.006891     -0.024781
Ir     13.72694     11.41875     12.50109        -0.041707      0.001881      0.044973
Ir     11.57111     12.34627     13.09412        -0.077204     -0.030008      0.010865
Ir      8.49648     11.09812      9.33363        -0.000518     -0.007512      0.001332
Ir     11.59330      8.02691     10.14550         0.008296     -0.001148      0.006208
Ir      7.21877     13.03334      8.65826         0.003647      0.017175      0.012734
Ir      9.54842      6.96276      9.23896         0.007290     -0.000779     -0.001256
Ir      8.05223      8.76387     10.05726        -0.003161      0.007139     -0.005267
Ir     10.71991     12.12293      8.50083         0.000645     -0.000165     -0.004841
Ir      9.51387      7.57426     11.75565         0.002989      0.007728      0.001561
Ir     13.66925      8.80169      8.84545         0.017607      0.004926      0.023084
