152
# total energy = -1060.01987262 eVH     10.35389      5.87395      7.64558        -0.265086      0.004716      1.144338
H     10.62451     15.10445      7.64558         0.046944     -0.090013      0.925766
H     10.62451      5.87395     13.33282        -0.240338      0.087099     -0.788056
H     10.35389     15.10445     13.33282         0.099166     -0.297909     -0.896122
H      7.64558     10.35389      5.87395         0.931471     -0.114922      0.182603
H      7.64558     10.62451     15.10445         0.335897     -0.043497     -0.076332
H     13.33282     10.62451      5.87395        -0.871348      0.211706      0.202973
H     13.33282     10.35389     15.10445        -0.277437     -0.011573     -0.068855
H      5.87395      7.64558     10.35389         0.088886      0.414812     -0.014298
H     15.10445      7.64558     10.62451         0.011580      0.509978     -0.032609
H      5.87395     13.33282     10.62451        -0.017811     -0.962268      0.076653
H     15.10445     13.33282     10.35389        -0.078843     -0.320087      0.004274
H      5.87395     10.35389      7.64558         0.272210      0.118132      0.416165
H     15.10445     10.62451      7.64558        -0.125463     -0.175128      0.651874
H      5.87395     10.62451     13.33282        -0.089730      0.459206     -0.617358
H     15.10445     10.35389     13.33282         0.260153     -0.646343     -0.813392
H     10.35389      7.64558      5.87395        -0.045622      0.481348      0.331129
H     10.62451      7.64558     15.10445         0.222519      0.750717     -0.044185
H     10.62451     13.33282      5.87395         0.123408     -0.563986      0.204976
H     10.35389     13.33282     15.10445         0.043883     -0.286105     -0.135578
H      7.64558      5.87395     10.35389         0.339225      0.093539      0.017012
H      7.64558     15.10445     10.62451         0.371338     -0.114061      0.158037
H     13.33282      5.87395     10.62451        -0.317878      0.127482     -0.036400
H     13.33282     15.10445     10.35389        -0.652427     -0.133184      0.145222
H     12.45634     12.45634     19.01126         0.254939      0.270649     -0.229503
H     19.01126     19.01126     19.01126        -0.245748     -0.268672     -0.245364
H     19.01126     12.45634     12.45634        -0.251619      0.269115      0.235132
H     12.45634     19.01126     12.45634         0.290624     -0.236143      0.234120
C     10.35284      5.61067      6.59456         0.396968     -0.427693     -1.459701
C     10.62556     15.36773      6.59456        -0.158227      0.572124     -0.629076
C     10.62556      5.61067     14.38384         0.386966     -0.348497      0.844277
C     10.35284     15.36773     14.38384        -0.234109      0.223303      1.108429
C      6.59456     10.35284      5.61067        -1.375542      0.018945     -0.243749
C      6.59456     10.62556     15.36773        -0.653277      0.060272      0.381956
C     14.38384     10.62556      5.61067         1.307671     -0.173867     -0.621108
C     14.38384     10.35284     15.36773         0.376094     -0.121985      0.357710
C      5.61067      6.59456     10.35284        -0.294851     -0.626697     -0.013154
C     15.36773      6.59456     10.62556         0.421703     -0.999211      0.030565
C      5.61067     14.38384     10.62556        -0.123964      1.161815     -0.180827
C     15.36773     14.38384     10.35284         0.457449      0.647269     -0.025615
C      5.61067     10.35284      6.59456        -0.365857     -0.101325     -0.713786
C     15.36773     10.62556      6.59456         0.418459      0.120915     -0.747024
C      5.61067     10.62556     14.38384        -0.384209     -0.174534      1.226403
C     15.36773     10.35284     14.38384         0.282829      0.191730      1.505177
C     10.35284      6.59456      5.61067        -0.050397     -0.711762     -0.627714
C     10.62556      6.59456     15.36773        -0.092198     -0.832839      0.346378
C     10.62556     14.38384      5.61067        -0.457921      0.416123     -0.698667
C     10.35284     14.38384     15.36773        -0.152672      0.589374      0.413561
C      6.59456      5.61067     10.35284        -0.502349     -0.338999      0.038818
C      6.59456     15.36773     10.62556        -0.395380      0.465762      0.050914
C     14.38384      5.61067     10.62556         0.448566     -0.386247      0.004865
C     14.38384     15.36773     10.35284         1.120656      0.502977     -0.070963
C     10.40319      3.19606      7.29314         0.001866      0.642253     -0.336970
C     10.35913      4.25547      6.23373         0.003900     -0.444324      0.290223
C      0.08601      7.29314      7.29314        -0.013066     -0.356805     -0.497260
C      0.13007      6.23373      6.23373        -0.078213      0.830673      0.060501
C      0.08601      3.19606      3.19606        -0.001666      0.671416      0.269677
C      0.13007      4.25547      4.25547         0.023498     -0.269427     -0.525827
C     10.40319      7.29314      3.19606        -0.067127     -1.157098      0.555551
C     10.35913      6.23373      4.25547        -0.038047      0.372452     -0.196016
C      7.29314     10.40319      3.19606        -1.083844     -0.058258      0.185540
C      6.23373     10.35913      4.25547         0.363375      0.081596     -0.537030
C      7.29314      0.08601      7.29314        -0.411826      0.033988     -0.559503
C      6.23373      0.13007      6.23373         0.179083      0.132299      0.130732
C      3.19606      0.08601      3.19606         0.698195      0.024312      0.164424
C      4.25547      0.13007      4.25547        -0.169661     -0.053112     -0.366209
C      3.19606     10.40319      7.29314         0.385226     -0.024834     -0.867688
C      4.25547     10.35913      6.23373        -0.162215     -0.084142      0.096213
C      3.19606      7.29314     10.40319         0.600066     -0.386779      0.001729
C      4.25547      6.23373     10.35913        -0.117488      0.181111     -0.000040
C      7.29314      7.29314      0.08601        -0.403082     -0.327092     -0.015102
C      6.23373      6.23373      0.13007         0.198442      0.192981     -0.058077
C      3.19606      3.19606      0.08601         0.290631      0.479456     -0.023425
C      4.25547      4.25547      0.13007        -0.398857     -0.227224     -0.030097
C      7.29314      3.19606     10.40319        -0.281685      0.589794     -0.013274
C      6.23373      4.25547     10.35913         0.003493     -0.124008      0.021940
O     10.43466      3.58206      8.50569        -0.029993      0.102679      0.329487
O     10.54374     17.39634      8.50569         0.066245     -0.134192      0.591900
O     10.54374      3.58206     12.47271         0.027103      0.107628     -0.390273
O     10.43466     17.39634     12.47271         0.088674     -0.045254     -0.366269
O      8.50569     10.43466      3.58206         0.713450     -0.060593      0.013532
O      8.50569     10.54374     17.39634         0.453136      0.054932     -0.070929
O     12.47271     10.54374      3.58206        -0.652418      0.113822      0.204519
O     12.47271     10.43466     17.39634        -0.288024     -0.004867      0.012872
O      3.58206      8.50569     10.43466         0.044856      0.461668     -0.065800
O     17.39634      8.50569     10.54374        -0.061729      0.461277      0.055261
O      3.58206     12.47271     10.54374         0.113771     -0.584392      0.002868
O     17.39634     12.47271     10.43466        -0.168115     -0.738256     -0.061019
O      3.58206     10.43466      8.50569         0.216890     -0.063381      0.778428
O     17.39634     10.54374      8.50569        -0.115589      0.077214      0.594628
O      3.58206     10.54374     12.47271         0.000159     -0.001367     -0.270054
O     17.39634     10.43466     12.47271         0.042524     -0.013511     -0.213013
O     10.43466      8.50569      3.58206        -0.104396      0.575257     -0.115454
O     10.54374      8.50569     17.39634         0.065141      0.502504     -0.098733
O     10.54374     12.47271      3.58206         0.105089     -0.623321      0.134331
O     10.43466     12.47271     17.39634        -0.060955     -0.630379     -0.240293
O      8.50569      3.58206     10.43466         0.398855      0.028692     -0.032125
O      8.50569     17.39634     10.54374         0.627609     -0.152642      0.050327
O     12.47271      3.58206     10.54374        -0.508375      0.126562      0.037393
O     12.47271     17.39634     10.43466        -0.621845     -0.139078      0.036218
O     11.90042     11.90042     19.56718        -0.274338     -0.308528      0.236985
O     19.56718     19.56718     19.56718         0.301918      0.318833      0.299739
O     19.56718     11.90042     11.90042         0.285375     -0.324917     -0.230634
O     11.90042     19.56718     11.90042        -0.317727      0.230223     -0.201800
O      9.45224      1.03696      9.45224        -0.084886      0.082830     -0.066517
O      1.03696      9.45224      9.45224         0.099659     -0.116663     -0.044389
O      1.03696      1.03696      1.03696         0.082438      0.055072      0.099685
O      9.45224      9.45224      1.03696        -0.060010     -0.131238      0.131104
Zr     10.48920      2.52580     10.48920         0.032137     -0.087404      0.066024
Zr     10.48920     18.45260     10.48920        -0.169613      0.262223     -0.344248
Zr     10.48920     10.48920      2.52580         0.122646      0.355223     -0.355064
Zr     10.48920     10.48920     18.45260        -0.080507     -0.193129      0.172752
Zr      2.52580     10.48920     10.48920        -0.253273      0.123948      0.220534
Zr     18.45260     10.48920     10.48920         0.230957     -0.111332      0.006967
Pd      9.38674     14.22106      9.39228         0.019664      0.055131     -0.036548
Pd      8.63227     13.71312     12.98244        -0.011101     -0.023895     -0.005157
Pd     12.01655     14.41534      8.75522         0.023300      0.000961     -0.011708
Pd     12.78398     12.79837     10.60864        -0.031118      0.053911      0.029998
Pd     12.16703      7.09936     12.60369        -0.028284      0.024325      0.017238
Pd     11.23982     14.80238     11.53269        -0.035620      0.035030     -0.036446
Pd     10.11485     12.46087     11.15303        -0.078930      0.055880     -0.088891
Pd     13.47655     12.13512      7.97266         0.011135      0.000807      0.009640
Pd     11.47428     11.55184      6.11748         0.012325      0.007304     -0.014031
Pd      7.84330      8.58726      7.55452         0.018247     -0.039875     -0.016813
Pd      8.74550     11.72503      6.90109        -0.014232      0.004258     -0.033894
Pd     10.31570      9.45488      8.13376        -0.002141      0.019282      0.017450
Pd      8.50869     14.42433      6.87632         0.003452      0.017747     -0.040536
Pd     12.37742      9.02959      6.57555        -0.010524      0.006412      0.017452
Pd      9.74243      9.60569      5.55038         0.002021      0.001843      0.004780
Pd      6.88406      9.46286     12.19262        -0.012188     -0.002827     -0.003696
Pd     12.21023      6.67430      7.84908        -0.001582      0.025709      0.035183
Pd      5.96479     10.48769      9.73971        -0.019126     -0.036716     -0.020974
Pd      7.57149      7.09971     13.19704         0.018024      0.054239      0.078728
Ir     11.83209      9.69029     13.06125        -0.025833      0.002003     -0.000610
Ir     13.59254      8.98198     11.43113        -0.020030     -0.000352      0.017277
Ir      9.42763      8.81538     13.82083        -0.008213     -0.021303      0.065825
Ir     10.57601     10.91327     14.85406         0.000103      0.001303      0.044688
Ir      7.31084     12.04604     11.37524         0.010858     -0.021962      0.009689
Ir     14.70457     10.81930     10.06578        -0.002232      0.018279      0.028407
Ir     12.20693     10.45913      9.65055        -0.021548      0.020254      0.004847
Ir      8.77986     11.04882     13.04074        -0.026895      0.032392     -0.051872
Ir     10.16002      9.83323     11.24783        -0.017910      0.021898     -0.037661
Ir     13.80055     11.35441     12.38277        -0.037802      0.002273      0.050367
Ir     11.70521     12.29079     13.11912        -0.049522      0.004307      0.021390
Ir      8.54717     11.06159      9.40326        -0.023162      0.009982     -0.004740
Ir     11.59866      7.96180     10.05224         0.001756      0.007051      0.009281
Ir      7.22725     12.97161      8.69343         0.010764      0.013958      0.014290
Ir      9.51060      7.00065      9.07674         0.007123      0.005763      0.030438
Ir      8.08381      8.73635     10.11369        -0.013726      0.016858     -0.006181
Ir     10.76806     12.08119      8.55067        -0.004844      0.006331     -0.002926
Ir      9.59156      7.39385     11.63267        -0.018241      0.038546      0.032435
Ir     13.70359      8.67047      8.79153        -0.001108      0.025958      0.004432
