152
# total energy = -1004.45097949 eVH     10.35389      5.87395      7.64558        -0.132996      0.132336      0.648269
H     10.62451     15.10445      7.64558        -0.148887     -0.173311      0.551497
H     10.62451      5.87395     13.33282         0.401158      0.027565     -0.866182
H     10.35389     15.10445     13.33282         0.053963     -0.175100     -0.499378
H      7.64558     10.35389      5.87395         0.361471      0.044219      0.149522
H      7.64558     10.62451     15.10445         0.920688      0.626793      0.020700
H     13.33282     10.62451      5.87395        -0.453584      0.066608      0.182962
H     13.33282     10.35389     15.10445        -0.824218     -0.241153      0.039296
H      5.87395      7.64558     10.35389         0.185683      1.736641      0.149428
H     15.10445      7.64558     10.62451        -0.080132      0.496061      0.251565
H      5.87395     13.33282     10.62451         0.200916     -0.563833     -0.011655
H     15.10445     13.33282     10.35389         0.210460     -1.320228     -0.463732
H      5.87395     10.35389      7.64558         0.138881      0.039389      0.501821
H     15.10445     10.62451      7.64558        -0.217176      0.895676      1.398499
H      5.87395     10.62451     13.33282        -0.036820      0.569100     -1.262531
H     15.10445     10.35389     13.33282         0.098553     -0.217441     -0.808280
H     10.35389      7.64558      5.87395         0.271263      1.263039      0.132951
H     10.62451      7.64558     15.10445         0.511773      0.761772     -0.097634
H     10.62451     13.33282      5.87395        -0.480372     -0.709314      0.312253
H     10.35389     13.33282     15.10445        -0.232695     -0.504550     -0.327559
H      7.64558      5.87395     10.35389         1.193441     -0.247262     -0.082357
H      7.64558     15.10445     10.62451         0.831734     -0.194693     -0.019674
H     13.33282      5.87395     10.62451        -0.595670      0.122626      0.652177
H     13.33282     15.10445     10.35389        -0.511295     -0.019973     -0.221467
H     12.45634     12.45634     19.01126         0.267970      0.253525     -0.230957
H     19.01126     19.01126     19.01126        -0.267896     -0.264237     -0.221951
H     19.01126     12.45634     12.45634        -0.277689      0.255973      0.227636
H     12.45634     19.01126     12.45634         0.243466     -0.280291      0.241326
C     10.35284      5.61067      6.59456        -0.154872     -0.788906     -0.433500
C     10.62556     15.36773      6.59456         0.080850      0.250353     -0.270826
C     10.62556      5.61067     14.38384        -0.043338     -0.448687      0.574858
C     10.35284     15.36773     14.38384         0.009334      0.244061      0.485751
C      6.59456     10.35284      5.61067        -0.470185      0.044298     -0.319862
C      6.59456     10.62556     15.36773        -0.913516      0.191931      0.713031
C     14.38384     10.62556      5.61067         0.672266      0.025432     -0.951107
C     14.38384     10.35284     15.36773         0.932194     -0.126610      0.388675
C      5.61067      6.59456     10.35284        -0.900811     -1.006583     -0.500116
C     15.36773      6.59456     10.62556         0.693796     -0.026980     -0.231462
C      5.61067     14.38384     10.62556        -0.254335      0.611392      0.011766
C     15.36773     14.38384     10.35284         0.308032      1.316980      0.067742
C      5.61067     10.35284      6.59456        -0.273268      0.011815     -0.695660
C     15.36773     10.62556      6.59456         0.497865     -0.350975     -0.954458
C      5.61067     10.62556     14.38384        -0.506949     -0.004457      0.880290
C     15.36773     10.35284     14.38384         0.499493     -0.076690      1.006114
C     10.35284      6.59456      5.61067        -0.116546     -0.891810     -0.366289
C     10.62556      6.59456     15.36773         0.110082     -0.744153      0.493541
C     10.62556     14.38384      5.61067         0.143903      1.095736     -0.336100
C     10.35284     14.38384     15.36773        -0.021367      1.026202      0.490770
C      6.59456      5.61067     10.35284        -0.580879     -1.250713      0.081251
C      6.59456     15.36773     10.62556        -0.979856      0.187163      0.099616
C     14.38384      5.61067     10.62556        -0.130417     -0.481496     -0.289384
C     14.38384     15.36773     10.35284         0.248882      0.596723     -0.072832
C     10.40319      3.19606      7.29314         0.009004      0.847691     -0.545677
C     10.35913      4.25547      6.23373         0.038986     -0.528880      0.132079
C      0.08601      7.29314      7.29314        -0.026696     -0.984670     -0.228313
C      0.13007      6.23373      6.23373        -0.083879      0.347952      0.318756
C      0.08601      3.19606      3.19606         0.052913      1.307163      0.146212
C      0.13007      4.25547      4.25547        -0.024473     -0.335404     -0.406317
C     10.40319      7.29314      3.19606        -0.005470     -0.500862      0.256617
C     10.35913      6.23373      4.25547        -0.022349      0.118520     -0.706512
C      7.29314     10.40319      3.19606        -0.317589      0.022741      0.473481
C      6.23373     10.35913      4.25547         0.220399      0.092093     -0.109371
C      7.29314      0.08601      7.29314        -1.024311     -0.097123     -0.392389
C      6.23373      0.13007      6.23373         0.671925     -0.198418      0.452056
C      3.19606      0.08601      3.19606         1.194070     -0.022250      0.388945
C      4.25547      0.13007      4.25547        -0.668732     -0.167096     -0.226656
C      3.19606     10.40319      7.29314         0.563686      0.027440     -0.332501
C      4.25547     10.35913      6.23373        -0.242376      0.104064      0.221814
C      3.19606      7.29314     10.40319         0.331772     -0.822515      0.037564
C      4.25547      6.23373     10.35913        -1.093246      0.120599      0.185171
C      7.29314      7.29314      0.08601        -0.467018     -0.498434     -0.014696
C      6.23373      6.23373      0.13007         0.480089      0.312003      0.004794
C      3.19606      3.19606      0.08601         0.533863      0.399324     -0.021393
C      4.25547      4.25547      0.13007        -0.019702     -0.725853     -0.096832
C      7.29314      3.19606     10.40319        -0.393949      0.507107      0.055896
C      6.23373      4.25547     10.35913         0.566537     -0.717524      0.212524
O     10.43466      3.58206      8.50569         0.005905      0.091267      0.510170
O     10.54374     17.39634      8.50569         0.054407     -0.024433      0.276166
O     10.54374      3.58206     12.47271        -0.003445     -0.081349     -0.138502
O     10.43466     17.39634     12.47271        -0.037945     -0.127626     -0.463639
O      8.50569     10.43466      3.58206         0.419013     -0.028698      0.065556
O      8.50569     10.54374     17.39634         0.835561     -0.057082     -0.156733
O     12.47271     10.54374      3.58206        -0.889184      0.123226      0.090021
O     12.47271     10.43466     17.39634        -0.599106      0.024477     -0.155646
O      3.58206      8.50569     10.43466         0.191383      0.847138     -0.017932
O     17.39634      8.50569     10.54374        -0.152703      0.672362      0.037200
O      3.58206     12.47271     10.54374         0.107552     -0.542861      0.053224
O     17.39634     12.47271     10.43466        -0.167399     -0.604753     -0.040329
O      3.58206     10.43466      8.50569         0.078501     -0.055804      0.443176
O     17.39634     10.54374      8.50569         0.029233      0.094815      0.395464
O      3.58206     10.54374     12.47271        -0.022777      0.026508     -0.311615
O     17.39634     10.43466     12.47271        -0.182166     -0.033831     -0.621685
O     10.43466      8.50569      3.58206        -0.030557      0.597030      0.166450
O     10.54374      8.50569     17.39634        -0.093021      0.798630     -0.220439
O     10.54374     12.47271      3.58206         0.105500     -0.956119      0.155078
O     10.43466     12.47271     17.39634         0.065760     -0.703736     -0.178957
O      8.50569      3.58206     10.43466         0.569336      0.140428     -0.046823
O      8.50569     17.39634     10.54374         0.548117     -0.150188      0.006384
O     12.47271      3.58206     10.54374        -0.687126      0.154356      0.018385
O     12.47271     17.39634     10.43466        -0.438792     -0.063233     -0.033244
O     11.90042     11.90042     19.56718        -0.318362     -0.288687      0.244447
O     19.56718     19.56718     19.56718         0.301416      0.309701      0.217960
O     19.56718     11.90042     11.90042         0.337602     -0.276040     -0.235767
O     11.90042     19.56718     11.90042        -0.264283      0.347224     -0.255876
O      9.45224      1.03696      9.45224        -0.026400      0.083022     -0.125656
O      1.03696      9.45224      9.45224         0.067664     -0.037534     -0.124238
O      1.03696      1.03696      1.03696         0.075021      0.100282      0.091861
O      9.45224      9.45224      1.03696        -0.052860     -0.043325      0.074351
Zr     10.48920      2.52580     10.48920        -0.066562     -0.202125      0.041426
Zr     10.48920     18.45260     10.48920         0.007141      0.073594      0.147730
Zr     10.48920     10.48920      2.52580        -0.300065     -0.385661     -0.353962
Zr     10.48920     10.48920     18.45260         0.106576      0.021981      0.396972
Zr      2.52580     10.48920     10.48920        -0.198476      0.075392     -0.025371
Zr     18.45260     10.48920     10.48920         0.174972     -0.003665      0.028278
Pd     13.01406      8.50942      9.84750         0.069620     -0.136365     -0.064322
Pd      6.28208      9.59362     10.26469        -0.037648      0.004453      0.019575
Pd      6.97874     11.59546     11.77380         0.019073      0.067646      0.052414
Pd     12.37493     13.34776      7.27073        -0.043301     -0.081266      0.091429
Pd     12.14689      7.85094      7.14545        -0.061208     -0.006535     -0.092272
Pd      8.46886      7.29542      6.88390         0.071014      0.001128     -0.021428
Pd     11.39912     11.47643      5.61025        -0.080702     -0.089820     -0.082412
Pd     14.56884      8.81994      7.68648        -0.049488     -0.047993     -0.093276
Pd      9.89224     11.81328      7.96393         0.012155     -0.019980      0.017015
Pd      7.05703      7.13545     12.01079        -0.045116      0.017199      0.035942
Pd      6.33722      7.50934      8.39930         0.016371     -0.027358      0.032821
Pd      7.21732      9.15708     13.63577         0.089781     -0.090610     -0.055410
Pd     11.40008      6.33144      9.22994         0.044945      0.009695      0.026879
Pd     10.01129      9.52488      6.57650        -0.048894     -0.062418      0.008042
Pd      9.04948     13.99000      9.37020         0.001490     -0.001326      0.007575
Pd     10.87103      7.44993     11.47409        -0.011197     -0.008672     -0.014061
Pd     10.48163      9.07900      9.26863        -0.196329      0.010341      0.000440
Pd      9.49117     11.55083     10.57572        -0.121563     -0.034379     -0.059303
Pd      8.83178      7.11516      9.57959         0.076720      0.037882      0.028992
Pd      9.18206      7.42642     13.48928        -0.016948      0.023651      0.067848
Pd      8.69884      9.22319     11.35947        -0.036349     -0.092553     -0.034255
Pd     12.25526     10.47006      7.91516         0.042680      0.051653     -0.078138
Pd      7.27124     11.93071      9.13208         0.045418      0.116737      0.046708
Pd      8.09487      9.58420      8.36085         0.088931     -0.024349     -0.000640
Pd     13.99168      6.38545      8.51702         0.097275     -0.046262     -0.001608
Pd     13.17633      8.48071     12.47884         0.073415     -0.055909     -0.151562
Pd      9.03564     11.44303     13.34952        -0.067799     -0.113210      0.040161
Pd     13.92221     12.08788      9.00735         0.007607     -0.013726     -0.034291
Pd     13.18978     11.13925     13.16460        -0.102892      0.058420     -0.010855
Pd     14.64473     10.36707     10.94536         0.038188     -0.017129     -0.009965
Pd     12.01570     10.76845     10.70013        -0.046959      0.033717      0.210104
Pd     11.53725     13.23866      9.73775        -0.003999      0.078281      0.069616
Pd     13.64095     13.08230     11.53203         0.022931      0.063718      0.080193
Pd     11.16279     12.78592     12.36719        -0.032934     -0.012391      0.129842
Pd     11.23051     11.57959     14.86945         0.026285      0.083162      0.008174
Pd     10.92565      9.68686     12.90139        -0.085757      0.033256     -0.087281
Pd      9.54178      9.55366     15.21710        -0.083788     -0.077607     -0.012647
Pd      8.69870     13.73493     12.02924         0.023739      0.062604     -0.047533
