152
# total energy = -1093.15490860 eVH     10.35389      5.87395      7.64558        -0.020912     -0.122988      1.200752
H     10.62451     15.10445      7.64558        -0.179360      0.085088      1.389477
H     10.62451      5.87395     13.33282         0.148052     -0.037016     -1.073069
H     10.35389     15.10445     13.33282         0.022864     -0.046185     -0.880324
H      7.64558     10.35389      5.87395         0.523148      0.024893     -0.092318
H      7.64558     10.62451     15.10445         0.404676     -0.001380      0.006064
H     13.33282     10.62451      5.87395        -0.670294     -0.035260      0.002356
H     13.33282     10.35389     15.10445        -0.431111     -0.012901     -0.015744
H      5.87395      7.64558     10.35389        -0.144747      1.339792      0.056067
H     15.10445      7.64558     10.62451        -0.016219      0.451489      0.032170
H      5.87395     13.33282     10.62451        -0.075565     -0.225546      0.041349
H     15.10445     13.33282     10.35389         0.192131     -1.525656      0.110641
H      5.87395     10.35389      7.64558        -0.082641     -0.751349      0.493817
H     15.10445     10.62451      7.64558         0.445146      0.799530      0.208279
H      5.87395     10.62451     13.33282        -0.007018     -0.180060     -0.267875
H     15.10445     10.35389     13.33282        -0.061976      0.235172     -0.171810
H     10.35389      7.64558      5.87395        -0.115404      0.436189      0.082311
H     10.62451      7.64558     15.10445         0.051037      0.501550      0.283411
H     10.62451     13.33282      5.87395         0.087273     -0.410358     -0.198241
H     10.35389     13.33282     15.10445        -0.141449     -0.561801      0.175625
H      7.64558      5.87395     10.35389         0.485821     -0.033779     -0.048143
H      7.64558     15.10445     10.62451         0.299983      0.029393     -0.028047
H     13.33282      5.87395     10.62451        -0.196792     -0.084637     -0.007733
H     13.33282     15.10445     10.35389        -0.502830      0.094114     -0.017425
H     12.45634     12.45634     19.01126         0.265674      0.247738     -0.244687
H     19.01126     19.01126     19.01126        -0.262751     -0.242714     -0.251820
H     19.01126     12.45634     12.45634        -0.265159      0.261885      0.232997
H     12.45634     19.01126     12.45634         0.274889     -0.255263      0.226453
C     10.35284      5.61067      6.59456        -0.157200     -0.313567     -1.787287
C     10.62556     15.36773      6.59456         0.433250      0.126872     -1.861374
C     10.62556      5.61067     14.38384        -0.341200     -0.126643      1.700571
C     10.35284     15.36773     14.38384         0.234765      0.150526      1.633961
C      6.59456     10.35284      5.61067        -0.924350     -0.115667     -0.318027
C      6.59456     10.62556     15.36773        -0.829267     -0.008289      0.116916
C     14.38384     10.62556      5.61067         1.035313      0.040894     -0.231950
C     14.38384     10.35284     15.36773         0.776314     -0.021994      0.169597
C      5.61067      6.59456     10.35284        -0.093179     -1.658798      0.061297
C     15.36773      6.59456     10.62556         0.314237     -0.915595      0.038058
C      5.61067     14.38384     10.62556        -0.417680      0.794850      0.042454
C     15.36773     14.38384     10.35284         0.055922      1.810110     -0.077736
C      5.61067     10.35284      6.59456        -0.755566      0.281619     -1.833162
C     15.36773     10.62556      6.59456         0.744838     -0.209457     -1.935821
C      5.61067     10.62556     14.38384        -0.673343      0.093250      1.619995
C     15.36773     10.35284     14.38384         0.565682     -0.061525      1.410105
C     10.35284      6.59456      5.61067         0.026321     -1.544449     -0.756546
C     10.62556      6.59456     15.36773        -0.049373     -1.914269      0.701575
C     10.62556     14.38384      5.61067         0.084364      1.828888     -0.851672
C     10.35284     14.38384     15.36773         0.037770      1.850316      0.621999
C      6.59456      5.61067     10.35284        -0.872251     -0.812358     -0.031621
C      6.59456     15.36773     10.62556        -1.025046      0.570979      0.071131
C     14.38384      5.61067     10.62556         0.961721     -0.692064      0.089815
C     14.38384     15.36773     10.35284         0.882017      0.884254     -0.000273
C     10.40319      3.19606      7.29314        -0.005518      0.532277     -0.575164
C     10.35913      4.25547      6.23373        -0.009575     -0.834575      0.536696
C      0.08601      7.29314      7.29314         0.014949     -0.464539     -0.571950
C      0.13007      6.23373      6.23373         0.058904      0.851504      0.451857
C      0.08601      3.19606      3.19606         0.027346      0.688121      0.457133
C      0.13007      4.25547      4.25547        -0.042315     -0.735229     -0.480792
C     10.40319      7.29314      3.19606        -0.016205     -0.799415      0.478686
C     10.35913      6.23373      4.25547         0.009137      0.567528     -0.509460
C      7.29314     10.40319      3.19606        -0.311082     -0.006521      0.503657
C      6.23373     10.35913      4.25547         0.185729     -0.078369     -0.151666
C      7.29314      0.08601      7.29314        -0.252791     -0.030531     -0.383966
C      6.23373      0.13007      6.23373         0.154018     -0.096098      0.371101
C      3.19606      0.08601      3.19606         0.418507      0.013572      0.477518
C      4.25547      0.13007      4.25547        -0.204155      0.069965     -0.201396
C      3.19606     10.40319      7.29314         0.223836      0.032984     -0.501240
C      4.25547     10.35913      6.23373        -0.185469      0.106276      0.346360
C      3.19606      7.29314     10.40319         0.172941     -0.317601      0.008086
C      4.25547      6.23373     10.35913        -0.573273      0.178680      0.052702
C      7.29314      7.29314      0.08601        -0.585224     -0.466300      0.003088
C      6.23373      6.23373      0.13007         0.120187      0.196749     -0.058457
C      3.19606      3.19606      0.08601         0.561059      0.457131      0.004906
C      4.25547      4.25547      0.13007        -0.066425     -0.100570     -0.035145
C      7.29314      3.19606     10.40319        -0.217532      0.339010      0.009438
C      6.23373      4.25547     10.35913         0.596144     -0.249565      0.017556
O     10.43466      3.58206      8.50569         0.016686      0.237083      0.496187
O     10.54374     17.39634      8.50569        -0.028739     -0.239363      0.514996
O     10.54374      3.58206     12.47271         0.081293      0.159166     -0.392671
O     10.43466     17.39634     12.47271        -0.100914     -0.122133     -0.356000
O      8.50569     10.43466      3.58206         0.413393     -0.021081      0.075492
O      8.50569     10.54374     17.39634         0.467190      0.059780     -0.123510
O     12.47271     10.54374      3.58206        -0.502011     -0.010031      0.097850
O     12.47271     10.43466     17.39634        -0.418480     -0.053291     -0.104589
O      3.58206      8.50569     10.43466         0.166439      0.424378     -0.054731
O     17.39634      8.50569     10.54374        -0.088772      0.564385      0.047634
O      3.58206     12.47271     10.54374         0.047383     -0.531251      0.040157
O     17.39634     12.47271     10.43466        -0.174237     -0.454713     -0.024623
O      3.58206     10.43466      8.50569         0.187515     -0.015333      0.491379
O     17.39634     10.54374      8.50569        -0.125810     -0.010006      0.459434
O      3.58206     10.54374     12.47271         0.178749      0.088778     -0.479540
O     17.39634     10.43466     12.47271        -0.191164     -0.080710     -0.528395
O     10.43466      8.50569      3.58206         0.048279      0.655418      0.271096
O     10.54374      8.50569     17.39634         0.057469      0.490321     -0.211251
O     10.54374     12.47271      3.58206        -0.018769     -0.634554      0.269762
O     10.43466     12.47271     17.39634        -0.032773     -0.527898     -0.219885
O      8.50569      3.58206     10.43466         0.517058      0.151377     -0.030634
O      8.50569     17.39634     10.54374         0.621308     -0.095871      0.044729
O     12.47271      3.58206     10.54374        -0.627956      0.104113      0.034409
O     12.47271     17.39634     10.43466        -0.485218     -0.138730     -0.017255
O     11.90042     11.90042     19.56718        -0.307839     -0.283614      0.270692
O     19.56718     19.56718     19.56718         0.315186      0.271114      0.289359
O     19.56718     11.90042     11.90042         0.323928     -0.307568     -0.236023
O     11.90042     19.56718     11.90042        -0.328274      0.281874     -0.224374
O      9.45224      1.03696      9.45224        -0.031577      0.060422     -0.066333
O      1.03696      9.45224      9.45224         0.036164     -0.079319     -0.059679
O      1.03696      1.03696      1.03696         0.033533      0.051497      0.131213
O      9.45224      9.45224      1.03696        -0.024789     -0.087551      0.133771
Zr     10.48920      2.52580     10.48920        -0.106039     -0.129586     -0.010087
Zr     10.48920     18.45260     10.48920         0.111064      0.187330     -0.098722
Zr     10.48920     10.48920      2.52580        -0.009693      0.105063     -0.321379
Zr     10.48920     10.48920     18.45260        -0.030864     -0.015718      0.146981
Zr      2.52580     10.48920     10.48920        -0.046581     -0.029046     -0.050940
Zr     18.45260     10.48920     10.48920         0.092444      0.109151     -0.139887
Pd     12.92877      8.09023      7.61741        -0.015393      0.006806      0.000499
Pd      9.57419     14.56571     11.75820        -0.001307      0.018965     -0.018354
Pd     12.30877     10.86966     10.42126        -0.010392      0.013103      0.013695
Pd     14.63570      9.95673     11.59041         0.007383     -0.000153     -0.018820
Pd     10.93088      9.32908      6.12369        -0.018409     -0.003912     -0.016460
Pd      6.89906      8.53678      8.97317        -0.018772      0.005331     -0.009593
Ir     10.24599     11.84118     11.75556         0.017861     -0.007238     -0.003295
Ir     12.88458      8.26501     10.29308        -0.005295     -0.011906      0.010812
Ir     12.28983     10.97560      7.72063        -0.037013      0.004910      0.004939
Ir      9.68286     14.38630      9.16376        -0.005497      0.005670      0.006644
Ir     10.76954      9.17011     11.70247        -0.004469      0.023803     -0.032599
Ir      8.67441     10.07557      7.75099        -0.001797      0.043498     -0.001420
Ir     13.85418     12.49749      9.04916         0.013497     -0.016637     -0.007749
Ir     11.96251     13.55832      7.82618         0.012453     -0.005817     -0.018750
Ir     14.28294      9.88586      9.01392         0.000973      0.003302     -0.020629
Ir      9.17917      7.43961     10.36025        -0.029541     -0.000150      0.014645
Ir      8.15175     12.76112      7.83591         0.013126     -0.010325     -0.004261
Ir      9.12428      7.60237      7.79571        -0.011498      0.007353      0.003124
Ir     11.86034     13.49096     13.03047         0.006746     -0.023347     -0.010492
Ir     11.35424      6.67306     11.68494         0.001744     -0.011433      0.008839
Ir     10.23249     11.81486      9.07789         0.001312     -0.015341     -0.031639
Ir     12.86622      8.30323     12.95255         0.002041     -0.014860      0.006793
Ir     10.79580      9.15316      8.96606        -0.036313      0.010969     -0.000587
Ir     11.78905     13.57165     10.42206         0.005899     -0.011321      0.006001
Ir     13.82863     12.57596     11.78339        -0.013662      0.006242     -0.005679
Ir     12.35652     10.96333     13.08600         0.014024      0.017701     -0.031967
Ir     10.10832     11.72235      6.49122        -0.011629     -0.019460      0.022731
Ir     11.28951      6.57139      9.18350         0.009339      0.000272      0.014014
Ir      7.17137      8.36806     11.78465        -0.022189     -0.002109      0.011725
Ir      8.17040     12.71173     10.43494        -0.020066     -0.004206     -0.014317
Ir     10.85649      9.25170     14.26002        -0.005997      0.008156      0.010667
Ir      8.07769     12.54006     12.98959        -0.020213     -0.015869     -0.002092
Ir      6.54865     11.27254      9.06857         0.010661      0.011505     -0.029601
Ir      8.63051     10.04773     13.04400         0.007112     -0.017961     -0.010458
Ir      6.55659     10.91819     11.52739        -0.010878      0.008416      0.022306
Ir      9.10695      7.46762     13.02613        -0.003162     -0.019977     -0.008045
Ir     10.18121     11.64609     14.36219         0.000042      0.014690     -0.008071
Ir      8.69226     10.06359     10.39015         0.030975     -0.004858     -0.003274
