152
# total energy = -1093.13967723 eVH     10.35389      5.87395      7.64558         0.068841     -0.112821      1.267211
H     10.62451     15.10445      7.64558        -0.189530      0.086501      1.406264
H     10.62451      5.87395     13.33282         0.145141     -0.043534     -1.117301
H     10.35389     15.10445     13.33282         0.012416     -0.052084     -0.905055
H      7.64558     10.35389      5.87395         0.502355      0.022058     -0.073125
H      7.64558     10.62451     15.10445         0.407087      0.002804     -0.000298
H     13.33282     10.62451      5.87395        -0.663383     -0.039391      0.003381
H     13.33282     10.35389     15.10445        -0.428524     -0.005142     -0.005186
H      5.87395      7.64558     10.35389        -0.141469      1.349866      0.074161
H     15.10445      7.64558     10.62451        -0.012916      0.483089      0.032774
H      5.87395     13.33282     10.62451        -0.066300     -0.232612      0.034227
H     15.10445     13.33282     10.35389         0.218493     -1.592533      0.119961
H      5.87395     10.35389      7.64558        -0.106742     -0.684388      0.489668
H     15.10445     10.62451      7.64558         0.467516      0.822328      0.151078
H      5.87395     10.62451     13.33282        -0.023250     -0.194079     -0.274891
H     15.10445     10.35389     13.33282        -0.067684      0.222243     -0.133046
H     10.35389      7.64558      5.87395        -0.153199      0.420016      0.045769
H     10.62451      7.64558     15.10445         0.037775      0.522652      0.264096
H     10.62451     13.33282      5.87395         0.031230     -0.448742     -0.180788
H     10.35389     13.33282     15.10445        -0.158888     -0.549290      0.195246
H      7.64558      5.87395     10.35389         0.466813     -0.029485     -0.047604
H      7.64558     15.10445     10.62451         0.299128      0.026499     -0.030762
H     13.33282      5.87395     10.62451        -0.199541     -0.087828     -0.016288
H     13.33282     15.10445     10.35389        -0.511823      0.113904     -0.023652
H     12.45634     12.45634     19.01126         0.265253      0.246319     -0.244345
H     19.01126     19.01126     19.01126        -0.262601     -0.242906     -0.252283
H     19.01126     12.45634     12.45634        -0.264019      0.263256      0.232875
H     12.45634     19.01126     12.45634         0.273799     -0.255012      0.226582
C     10.35284      5.61067      6.59456        -0.193976     -0.289700     -1.765561
C     10.62556     15.36773      6.59456         0.456135      0.114382     -1.873791
C     10.62556      5.61067     14.38384        -0.354304     -0.116883      1.693211
C     10.35284     15.36773     14.38384         0.250648      0.144961      1.652598
C      6.59456     10.35284      5.61067        -0.886214     -0.110001     -0.306365
C      6.59456     10.62556     15.36773        -0.822863     -0.007053      0.105967
C     14.38384     10.62556      5.61067         1.026937      0.035293     -0.229289
C     14.38384     10.35284     15.36773         0.780352     -0.016844      0.179301
C      5.61067      6.59456     10.35284        -0.083839     -1.623263      0.042100
C     15.36773      6.59456     10.62556         0.289907     -0.946242      0.034070
C      5.61067     14.38384     10.62556        -0.401764      0.765994      0.036260
C     15.36773     14.38384     10.35284         0.038713      1.837368     -0.084879
C      5.61067     10.35284      6.59456        -0.717085      0.239734     -1.812509
C     15.36773     10.62556      6.59456         0.753519     -0.214933     -1.974533
C      5.61067     10.62556     14.38384        -0.666748      0.095917      1.655516
C     15.36773     10.35284     14.38384         0.589576     -0.069003      1.425684
C     10.35284      6.59456      5.61067         0.033264     -1.573110     -0.767425
C     10.62556      6.59456     15.36773        -0.044642     -1.865107      0.729263
C     10.62556     14.38384      5.61067         0.097991      1.816002     -0.855187
C     10.35284     14.38384     15.36773         0.038804      1.865789      0.641220
C      6.59456      5.61067     10.35284        -0.820474     -0.825424     -0.031017
C      6.59456     15.36773     10.62556        -1.034503      0.563835      0.070132
C     14.38384      5.61067     10.62556         0.985806     -0.722613      0.086840
C     14.38384     15.36773     10.35284         0.893132      0.933989      0.010585
C     10.40319      3.19606      7.29314        -0.004514      0.529983     -0.555127
C     10.35913      4.25547      6.23373        -0.015201     -0.830094      0.522076
C      0.08601      7.29314      7.29314         0.017898     -0.464436     -0.577123
C      0.13007      6.23373      6.23373         0.050325      0.868862      0.445519
C      0.08601      3.19606      3.19606         0.026471      0.688787      0.448610
C      0.13007      4.25547      4.25547        -0.041503     -0.748642     -0.488971
C     10.40319      7.29314      3.19606        -0.012088     -0.750959      0.486362
C     10.35913      6.23373      4.25547         0.015882      0.576588     -0.509173
C      7.29314     10.40319      3.19606        -0.305839     -0.008110      0.546520
C      6.23373     10.35913      4.25547         0.182242     -0.074400     -0.163007
C      7.29314      0.08601      7.29314        -0.240408     -0.031339     -0.392923
C      6.23373      0.13007      6.23373         0.153830     -0.098168      0.372014
C      3.19606      0.08601      3.19606         0.403061      0.011286      0.450391
C      4.25547      0.13007      4.25547        -0.195847      0.072445     -0.210866
C      3.19606     10.40319      7.29314         0.239227      0.029500     -0.470602
C      4.25547     10.35913      6.23373        -0.175089      0.109825      0.367405
C      3.19606      7.29314     10.40319         0.181475     -0.315812      0.003354
C      4.25547      6.23373     10.35913        -0.585915      0.188062      0.051473
C      7.29314      7.29314      0.08601        -0.585716     -0.468850      0.003916
C      6.23373      6.23373      0.13007         0.120616      0.210948     -0.058176
C      3.19606      3.19606      0.08601         0.560261      0.433443      0.001891
C      4.25547      4.25547      0.13007        -0.060092     -0.098421     -0.031368
C      7.29314      3.19606     10.40319        -0.215013      0.358802      0.003017
C      6.23373      4.25547     10.35913         0.629295     -0.255035      0.019816
O     10.43466      3.58206      8.50569         0.014630      0.232234      0.487930
O     10.54374     17.39634      8.50569        -0.030382     -0.238061      0.514274
O     10.54374      3.58206     12.47271         0.078788      0.158082     -0.384474
O     10.43466     17.39634     12.47271        -0.105353     -0.137513     -0.369307
O      8.50569     10.43466      3.58206         0.401335     -0.020834      0.066955
O      8.50569     10.54374     17.39634         0.457723      0.059456     -0.122353
O     12.47271     10.54374      3.58206        -0.503139     -0.010102      0.108566
O     12.47271     10.43466     17.39634        -0.435681     -0.052748     -0.115452
O      3.58206      8.50569     10.43466         0.169272      0.422666     -0.051294
O     17.39634      8.50569     10.54374        -0.087441      0.563492      0.046583
O      3.58206     12.47271     10.54374         0.050276     -0.521964      0.041437
O     17.39634     12.47271     10.43466        -0.177931     -0.461860     -0.021952
O      3.58206     10.43466      8.50569         0.176099     -0.016795      0.477702
O     17.39634     10.54374      8.50569        -0.125845     -0.011990      0.457981
O      3.58206     10.54374     12.47271         0.175092      0.087642     -0.460804
O     17.39634     10.43466     12.47271        -0.200195     -0.079404     -0.552691
O     10.43466      8.50569      3.58206         0.048623      0.629119      0.265889
O     10.54374      8.50569     17.39634         0.057820      0.493538     -0.210861
O     10.54374     12.47271      3.58206        -0.016485     -0.646676      0.271292
O     10.43466     12.47271     17.39634        -0.031954     -0.529421     -0.225420
O      8.50569      3.58206     10.43466         0.515085      0.150226     -0.030095
O      8.50569     17.39634     10.54374         0.616434     -0.095390      0.046042
O     12.47271      3.58206     10.54374        -0.631462      0.111063      0.029267
O     12.47271     17.39634     10.43466        -0.492366     -0.140473     -0.016594
O     11.90042     11.90042     19.56718        -0.310969     -0.283762      0.270835
O     19.56718     19.56718     19.56718         0.311692      0.270832      0.289782
O     19.56718     11.90042     11.90042         0.318564     -0.310983     -0.236206
O     11.90042     19.56718     11.90042        -0.330728      0.281367     -0.225652
O      9.45224      1.03696      9.45224        -0.037744      0.057000     -0.065783
O      1.03696      9.45224      9.45224         0.030197     -0.081442     -0.059748
O      1.03696      1.03696      1.03696         0.028665      0.049848      0.132043
O      9.45224      9.45224      1.03696        -0.030082     -0.085961      0.132474
Zr     10.48920      2.52580     10.48920        -0.102212     -0.125032     -0.007563
Zr     10.48920     18.45260     10.48920         0.121013      0.190464     -0.101197
Zr     10.48920     10.48920      2.52580        -0.000699      0.097547     -0.321071
Zr     10.48920     10.48920     18.45260        -0.022883     -0.016787      0.148810
Zr      2.52580     10.48920     10.48920        -0.034838     -0.026265     -0.059796
Zr     18.45260     10.48920     10.48920         0.107916      0.111507     -0.149651
Pd     12.95828      8.08471      7.65536         0.010915     -0.008464     -0.022152
Pd      9.57165     14.58036     11.75591         0.015869      0.005589     -0.010092
Pd     12.33450     10.90325     10.42219        -0.026362     -0.043561      0.039709
Pd     14.67180     10.00968     11.58213        -0.013497     -0.015159      0.006473
Pd     10.95772      9.30510      6.16830         0.007173      0.018608     -0.022615
Pd      6.91722      8.50404      8.96893         0.011862      0.032363      0.026968
Ir     10.26283     11.85543     11.75713         0.011985     -0.014071      0.024934
Ir     12.91698      8.29419     10.32971         0.001931     -0.022075     -0.041804
Ir     12.30779     10.99440      7.73525        -0.065168     -0.013750     -0.032634
Ir      9.68832     14.38871      9.16265        -0.017761      0.004674     -0.007160
Ir     10.80020      9.19199     11.71109        -0.024442      0.000656      0.000158
Ir      8.69314     10.06473      7.76494         0.005445      0.030920     -0.001939
Ir     13.87321     12.52616      9.03916         0.005600      0.016650     -0.000278
Ir     11.97647     13.57912      7.81325        -0.026993     -0.022416      0.016708
Ir     14.30174      9.90808      9.02060         0.006326     -0.017064     -0.002317
Ir      9.21184      7.43892     10.38850        -0.022447     -0.003167      0.002377
Ir      8.16679     12.74350      7.83385        -0.018465     -0.032651      0.001532
Ir      9.15608      7.59414      7.81985         0.022272     -0.017883     -0.009731
Ir     11.86089     13.51078     13.03290        -0.009013     -0.021957     -0.020972
Ir     11.39937      6.69587     11.71742        -0.028020     -0.022481      0.000722
Ir     10.24124     11.81800      9.08182         0.022520     -0.001093     -0.034921
Ir     12.90651      8.32189     12.98318        -0.003466      0.014214     -0.029971
Ir     10.82235      9.15615      8.98765        -0.008259      0.021423     -0.023904
Ir     11.79568     13.58794     10.41030         0.009318     -0.010815      0.019108
Ir     13.83728     12.62901     11.79275        -0.020629     -0.029270     -0.023561
Ir     12.38974     10.98049     13.07948        -0.043400      0.034686      0.003804
Ir     10.13442     11.70550      6.49448        -0.020165      0.007018      0.016276
Ir     11.31833      6.58394      9.21370         0.015850     -0.010213     -0.032515
Ir      7.18761      8.36411     11.78883         0.002978     -0.005085      0.007332
Ir      8.18425     12.71537     10.43622        -0.037722     -0.010745     -0.011412
Ir     10.88626      9.26390     14.26631        -0.008430      0.001400      0.021822
Ir      8.09642     12.53778     12.99421        -0.012565     -0.003139      0.004106
Ir      6.59027     11.22721      9.08962        -0.036795      0.039267     -0.016437
Ir      8.65849     10.03574     13.05950         0.009982      0.023001     -0.012035
Ir      6.58391     10.91510     11.55303        -0.020270      0.017265     -0.011658
Ir      9.12130      7.45763     13.03192         0.026620      0.024565      0.036610
Ir     10.20416     11.65380     14.35808        -0.007829     -0.006105      0.012946
Ir      8.71392     10.05885     10.40508         0.016513     -0.012794     -0.039260
