9
# total energy = -60.69414165 eVC     -0.00000      1.37727      7.50000         0.000000     -0.001852      0.000000
C      4.67380      2.69842      7.50000         0.001604      0.000926      0.000000
C      1.19275     -0.68863      7.50000        -0.001604      0.000926      0.000000
C     -0.00000      5.39684      7.50000        -0.000000      0.001852      0.000000
C      1.19275      0.68863      7.50000        -0.001604     -0.000926      0.000000
C      4.67380     -2.69842      7.50000         0.001604     -0.000926      0.000000
Pd      2.93328     -1.69353      7.50000         0.000000     -0.000000      0.000000
Pd     -0.00000      3.38706      7.50000         0.000000     -0.000000      0.000000
Pd      2.93328      1.69353      7.50000         0.000000      0.000000      0.000000
