35
# total energy = -301.58386664 eVC      6.68720     10.29604      7.66127         0.026239      0.002833     -0.020998
C      8.07562      9.94770      7.58340        -0.032770     -0.020456     -0.002244
C      9.41754      5.71253      7.64769         0.002039      0.013361     -0.013785
C      1.46304      5.34673      7.67991         0.029268     -0.057218      0.016048
C      4.19376      0.76124      7.63978        -0.025461     -0.001187     -0.019353
C      2.80470      1.10825      7.56850         0.042217      0.061784     -0.013405
C      0.70426      4.16458      7.65343         0.017216      0.006395     -0.013292
C      1.08740      2.78551      7.57595        -0.006777      0.047836      0.004741
C      5.35613      1.54943      7.63974        -0.002819      0.026904     -0.007079
C      5.52491      9.50845      7.68583         0.000490     -0.013714      0.019363
C     10.17711      6.89379      7.64615         0.004295      0.006383     -0.014001
C      9.79598      8.27330      7.57526        -0.038622     -0.038331     -0.005919
C      0.77629      6.57557      7.65258         0.054109      0.011075     -0.006785
C      1.26408      7.92116      7.57811         0.046040      0.008811      0.011626
C     10.10529      4.48314      7.64277        -0.074125     -0.010832     -0.004872
C      9.61866      3.13742      7.56027        -0.039052     -0.019811     -0.003386
C      4.27809     10.16425      7.65970         0.025809     -0.055470     -0.009581
C      2.94516      9.64349      7.58229        -0.009066     -0.041905      0.010209
C      6.60257      0.89296      7.63550         0.007609      0.067784     -0.004519
C      7.93631      1.41292      7.55421        -0.003698      0.038899      0.003849
N      8.80691      0.32471      7.47167         0.017453     -0.000684      0.013098
N      0.15657      8.76585      7.48558        -0.005474      0.002659      0.012422
N      8.54651      8.71046      7.60054        -0.043021     -0.029719      0.029061
N      2.33607      2.34726      7.59434         0.061113     -0.015509      0.028239
N      2.07348     10.72990      7.49067        -0.009302      0.017558      0.011614
N     10.72762      2.29330      7.47980         0.012419     -0.013414      0.004584
N      2.57809      8.32008      7.59424         0.007653     -0.003495      0.046993
N      8.30463      2.73666      7.56209        -0.010042     -0.002531      0.036060
O      5.32377      2.87820      7.58966         0.062133      0.028845     -0.026019
O      5.55896      8.17918      7.70970        -0.055071     -0.013436      0.021934
O      8.08889      5.71283      7.59902        -0.036560     -0.061421     -0.030204
O      2.79296      5.34481      7.70641         0.008812      0.070998      0.021193
Zr      6.54264      4.45594      7.51475        -0.039791      0.017272     -0.027085
Zr      4.34276      6.59990      7.73728         0.012986     -0.042880      0.019946
Zr      0.02720     10.81020      6.86442        -0.006248      0.012614     -0.088454
