20
# total energy = -167.56868507 eVC      8.02014      1.36291      7.50000        -0.079820     -0.101480      0.000000
C      1.41024     -0.16804      7.50000         0.044757     -0.122387      0.000000
C      8.35073     -5.42755      7.50000        -0.143008      0.022474      0.000000
C      0.87028      1.14550      7.50000         0.079820      0.101480      0.000000
C      7.48018      2.67645      7.50000        -0.044757      0.122387      0.000000
C      0.53970      7.93596      7.50000         0.143008     -0.022474     -0.000000
C      7.70455     -4.17943      7.50000         0.026907     -0.006483      0.000000
C      7.17368      0.24740      7.50000        -0.042153     -0.070171     -0.000000
C      2.78519     -0.45492      7.50000         0.015977      0.021360      0.000000
C      1.18587      6.68784      7.50000        -0.026907      0.006483      0.000000
C      1.71674      2.26101      7.50000         0.042153      0.070171     -0.000000
C      6.10523      2.96332      7.50000        -0.015977     -0.021360      0.000000
N      6.76888     -3.45873      7.50000         0.033690     -0.038453      0.000000
N      6.46714     -0.69582      7.50000         0.075456      0.101145      0.000000
N      3.73210     -1.16073      7.50000        -0.065205      0.032676     -0.000000
N      2.12155      5.96714      7.50000        -0.033690      0.038453     -0.000000
N      2.42328      3.20423      7.50000        -0.075456     -0.101145      0.000000
N      5.15832      3.66914      7.50000         0.065205     -0.032676     -0.000000
Ir      5.25770     -2.29875      7.50000         0.003707     -0.009612     -0.000000
Ir      3.63272      4.80716      7.50000        -0.003707      0.009612     -0.000000
