152
# total energy = -1003.10452641 eVH     10.35389      5.87395      7.64558        -0.059581      0.174236      0.885586
H     10.62451     15.10445      7.64558        -0.208958     -0.123737      1.092230
H     10.62451      5.87395     13.33282        -0.037119     -0.005314     -0.969470
H     10.35389     15.10445     13.33282        -0.065706     -0.188699     -0.845749
H      7.64558     10.35389      5.87395         0.738856      0.219219     -0.142525
H      7.64558     10.62451     15.10445         0.812781      0.470560      0.013411
H     13.33282     10.62451      5.87395        -0.616040     -0.013815      0.184657
H     13.33282     10.35389     15.10445        -0.661773     -0.187238      0.039333
H      5.87395      7.64558     10.35389        -0.210249      2.003911      0.385756
H     15.10445      7.64558     10.62451        -0.032949      1.130777     -0.071959
H      5.87395     13.33282     10.62451         0.192945     -0.833801      0.037538
H     15.10445     13.33282     10.35389         0.058210     -1.117883     -0.228677
H      5.87395     10.35389      7.64558        -0.502623      0.233652      1.167884
H     15.10445     10.62451      7.64558         0.118896      0.689129      1.596198
H      5.87395     10.62451     13.33282        -0.064342      0.426434     -1.144653
H     15.10445     10.35389     13.33282         1.013151      0.077343     -1.096748
H     10.35389      7.64558      5.87395         0.400418      1.408016     -0.082812
H     10.62451      7.64558     15.10445         0.478731      0.997770     -0.028691
H     10.62451     13.33282      5.87395        -0.349490     -0.792975      0.057296
H     10.35389     13.33282     15.10445        -0.114108     -0.441051     -0.150865
H      7.64558      5.87395     10.35389         1.034673     -0.164083     -0.143621
H      7.64558     15.10445     10.62451         0.586301     -0.210294     -0.015952
H     13.33282      5.87395     10.62451        -0.965502      0.048495      0.337215
H     13.33282     15.10445     10.35389        -0.392953     -0.103082     -0.036818
H     12.45634     12.45634     19.01126         0.265891      0.235127     -0.246095
H     19.01126     19.01126     19.01126        -0.263716     -0.257019     -0.229547
H     19.01126     12.45634     12.45634        -0.261052      0.264676      0.232904
H     12.45634     19.01126     12.45634         0.262355     -0.268017      0.226306
C     10.35284      5.61067      6.59456        -0.149717     -0.985048     -0.912343
C     10.62556     15.36773      6.59456         0.104612      0.439223     -0.859180
C     10.62556      5.61067     14.38384        -0.140360     -0.685078      1.200889
C     10.35284     15.36773     14.38384         0.072724      0.297552      0.886911
C      6.59456     10.35284      5.61067        -1.379008      0.180464     -0.867131
C      6.59456     10.62556     15.36773        -0.960473      0.198906      0.683320
C     14.38384     10.62556      5.61067         1.162634      0.139682     -0.891158
C     14.38384     10.35284     15.36773         1.317986      0.062754      0.776744
C      5.61067      6.59456     10.35284        -0.825036     -1.130577      0.055960
C     15.36773      6.59456     10.62556         0.540097     -0.230993     -0.012367
C      5.61067     14.38384     10.62556        -0.394910      0.938937     -0.014332
C     15.36773     14.38384     10.35284         0.401752      1.365832     -0.015794
C      5.61067     10.35284      6.59456        -0.266782     -0.040003     -1.421307
C     15.36773     10.62556      6.59456         0.373710     -0.040238     -1.233831
C      5.61067     10.62556     14.38384        -0.361410     -0.017741      0.937877
C     15.36773     10.35284     14.38384         0.113220     -0.059969      1.656817
C     10.35284      6.59456      5.61067        -0.031150     -1.270856     -0.609066
C     10.62556      6.59456     15.36773        -0.044152     -0.847081      0.638297
C     10.62556     14.38384      5.61067        -0.007074      0.789176     -0.591224
C     10.35284     14.38384     15.36773        -0.028581      0.409982      0.351297
C      6.59456      5.61067     10.35284        -0.491172     -1.190933      0.149026
C      6.59456     15.36773     10.62556        -0.685231      0.483951      0.036726
C     14.38384      5.61067     10.62556         0.398020     -0.714874     -0.189327
C     14.38384     15.36773     10.35284         0.328446      0.525356     -0.044140
C     10.40319      3.19606      7.29314        -0.022923      0.318328     -0.959467
C     10.35913      4.25547      6.23373        -0.035038     -0.479688      0.171513
C      0.08601      7.29314      7.29314        -0.033610     -0.740759     -0.328766
C      0.13007      6.23373      6.23373        -0.017563      0.389553      0.512440
C      0.08601      3.19606      3.19606        -0.013133      0.553547      0.476561
C      0.13007      4.25547      4.25547         0.000551     -0.511897     -0.377890
C     10.40319      7.29314      3.19606        -0.043892     -0.658026      0.236179
C     10.35913      6.23373      4.25547         0.021548      0.274078     -0.641239
C      7.29314     10.40319      3.19606        -0.564897     -0.007326      0.178258
C      6.23373     10.35913      4.25547         0.281064     -0.041961     -0.344896
C      7.29314      0.08601      7.29314        -0.818342     -0.077263     -0.327202
C      6.23373      0.13007      6.23373         0.604167     -0.199602      0.363962
C      3.19606      0.08601      3.19606         0.815397     -0.037142      0.246294
C      4.25547      0.13007      4.25547        -0.497255     -0.250374     -0.381278
C      3.19606     10.40319      7.29314         0.376242      0.004884     -0.165469
C      4.25547     10.35913      6.23373        -0.263068     -0.033267      0.331788
C      3.19606      7.29314     10.40319         0.307769     -0.448037      0.016953
C      4.25547      6.23373     10.35913        -0.894378      0.118118      0.067111
C      7.29314      7.29314      0.08601        -0.426150     -0.374816     -0.024266
C      6.23373      6.23373      0.13007         0.713082      0.076772      0.018710
C      3.19606      3.19606      0.08601         0.753127      0.352443     -0.024660
C      4.25547      4.25547      0.13007        -0.140589     -0.770244     -0.052359
C      7.29314      3.19606     10.40319        -0.461699      0.491038      0.008337
C      6.23373      4.25547     10.35913         0.370119     -0.755439      0.067056
O     10.43466      3.58206      8.50569         0.095217      0.267596      0.799085
O     10.54374     17.39634      8.50569         0.024508     -0.107568      0.358929
O     10.54374      3.58206     12.47271         0.073023      0.130056     -0.481295
O     10.43466     17.39634     12.47271        -0.033295     -0.100517     -0.351176
O      8.50569     10.43466      3.58206         0.640346     -0.069199      0.222229
O      8.50569     10.54374     17.39634         0.774734     -0.036429     -0.224582
O     12.47271     10.54374      3.58206        -0.767574      0.130255      0.270915
O     12.47271     10.43466     17.39634        -0.488390      0.010417     -0.199665
O      3.58206      8.50569     10.43466         0.187997      0.604080     -0.032095
O     17.39634      8.50569     10.54374        -0.152176      0.539759      0.036571
O      3.58206     12.47271     10.54374         0.088360     -0.440777      0.042545
O     17.39634     12.47271     10.43466        -0.156017     -0.584581     -0.032319
O      3.58206     10.43466      8.50569         0.156032     -0.021386      0.330513
O     17.39634     10.54374      8.50569        -0.042586      0.082341      0.331148
O      3.58206     10.54374     12.47271         0.061468      0.045162     -0.294611
O     17.39634     10.43466     12.47271        -0.088928     -0.025458     -0.271317
O     10.43466      8.50569      3.58206        -0.073290      0.673345      0.203270
O     10.54374      8.50569     17.39634        -0.054118      0.705158     -0.197002
O     10.54374     12.47271      3.58206         0.075390     -0.599122      0.138265
O     10.43466     12.47271     17.39634        -0.031886     -0.308152      0.000669
O      8.50569      3.58206     10.43466         0.636437      0.159005     -0.045232
O      8.50569     17.39634     10.54374         0.580600     -0.179819      0.018809
O     12.47271      3.58206     10.54374        -0.733729      0.117620      0.013195
O     12.47271     17.39634     10.43466        -0.543384     -0.132961     -0.033591
O     11.90042     11.90042     19.56718        -0.308080     -0.246800      0.262102
O     19.56718     19.56718     19.56718         0.301217      0.310973      0.242980
O     19.56718     11.90042     11.90042         0.324380     -0.297452     -0.248370
O     11.90042     19.56718     11.90042        -0.311505      0.339152     -0.230246
O      9.45224      1.03696      9.45224        -0.029090      0.105902     -0.094771
O      1.03696      9.45224      9.45224         0.050468     -0.023399     -0.100006
O      1.03696      1.03696      1.03696         0.038295      0.094847      0.096120
O      9.45224      9.45224      1.03696        -0.046925     -0.024750      0.112201
Zr     10.48920      2.52580     10.48920        -0.172817     -0.324681      0.163879
Zr     10.48920     18.45260     10.48920         0.082642      0.084229      0.035783
Zr     10.48920     10.48920      2.52580        -0.044812     -0.017062     -0.368107
Zr     10.48920     10.48920     18.45260         0.078227      0.005926      0.275536
Zr      2.52580     10.48920     10.48920        -0.104102     -0.133399     -0.016855
Zr     18.45260     10.48920     10.48920         0.097828     -0.000156      0.010242
Pd     12.00870      8.48337     10.22064        -0.004544     -0.070779      0.007815
Pd      7.23757      9.76568     10.56525         0.001561     -0.094118     -0.016484
Pd      7.13985     12.02532     11.88379         0.078716      0.037720      0.026757
Pd     12.03050     13.48244      7.57375        -0.004412      0.079314      0.002273
Pd     11.53414      8.13891      7.49878         0.187727      0.018163      0.100769
Pd      8.77832      7.37568      7.12928        -0.147681     -0.049434      0.099123
Pd     11.64905     11.27652      6.12508        -0.030087      0.059256     -0.050959
Pd     13.86334      9.24017      7.66278        -0.053129     -0.108918      0.038398
Pd      9.52801     11.92108      7.61196        -0.022819     -0.021160      0.105016
Pd      7.08958      7.25795     11.99131         0.016913     -0.011475     -0.063391
Pd      6.97761      7.60188      8.88905         0.120284      0.043584     -0.278138
Pd      7.48456      9.42256     13.35487        -0.183148      0.203717      0.035220
Pd     11.35308      5.94543      9.24401         0.016857     -0.031987     -0.037002
Pd      9.63847      9.67801      6.11428         0.139209      0.104230      0.018472
Pd      9.28516     14.15522      9.04675        -0.081338     -0.035626      0.008064
Pd     11.41000      6.48178     11.83221        -0.020928     -0.049886     -0.111624
Pd      9.78927      9.34596      9.02634         0.089332      0.025761      0.135788
Pd      9.35186     11.67240     10.27680        -0.105997     -0.053329      0.005116
Pd      9.29353      7.09870     10.35680        -0.018754     -0.103688     -0.121550
Pd      9.01862      7.26996     13.74793         0.080580     -0.032279     -0.048651
Pd      9.51195      9.25539     11.72029         0.040879     -0.127675      0.151698
Pd     11.89693     10.89372      8.73468         0.009831     -0.105833     -0.094856
Pd      7.12102     12.33220      9.11056         0.041507      0.020891      0.055314
Pd      7.65061      9.94930      7.95167        -0.127709     -0.003989     -0.035642
Pd     13.78301      6.90186      8.78655        -0.039012      0.111749     -0.000292
Pd     13.78877      7.72339     12.18818        -0.051691      0.015735     -0.048168
Pd      9.43755     11.56038     13.10518         0.010699     -0.055798      0.041811
Pd     14.12486     12.30332      8.72444        -0.015362      0.031481      0.006595
Pd     13.47497     10.27750     12.76864         0.019392      0.050644     -0.071239
Pd     14.13049     10.01435     10.22728        -0.009739      0.032283      0.001658
Pd     11.52423     10.94077     11.39023         0.003807      0.015093      0.011386
Pd     11.55974     13.36702     10.13992        -0.054276     -0.108990     -0.013447
Pd     13.74248     12.49461     11.40525        -0.042341      0.056973      0.047021
Pd     11.70311     13.32783     12.85009        -0.105022     -0.024993     -0.156576
Pd     11.67776     11.25911     14.46912        -0.009674      0.009385     -0.012704
Pd     11.47273      8.70495     13.29106        -0.101912      0.074444     -0.018075
Pd      9.63093      9.70167     15.04700        -0.090943     -0.106424     -0.001628
Pd      9.25234     13.87446     11.74281         0.063039     -0.009876     -0.064082
