152
# total energy = -1024.39303499 eVH     10.35389      5.87395      7.64558         0.480120      0.030179      0.738651
H     10.62451     15.10445      7.64558         0.046193     -0.198330      0.621771
H     10.62451      5.87395     13.33282         0.092209      0.160219     -0.564170
H     10.35389     15.10445     13.33282        -0.462075     -0.040016     -0.748761
H      7.64558     10.35389      5.87395         0.338824      0.019952      0.162360
H      7.64558     10.62451     15.10445         0.899932     -0.255978      0.021975
H     13.33282     10.62451      5.87395        -0.754398     -0.075432      0.153114
H     13.33282     10.35389     15.10445        -0.885977     -0.405055      0.206067
H      5.87395      7.64558     10.35389         0.174290      0.740725     -0.297813
H     15.10445      7.64558     10.62451        -0.138922      0.388863     -0.025464
H      5.87395     13.33282     10.62451         0.159438     -0.521498     -0.111369
H     15.10445     13.33282     10.35389        -0.090689     -1.201377      0.063025
H      5.87395     10.35389      7.64558         0.142432      0.156234      0.516548
H     15.10445     10.62451      7.64558         0.001475      0.099516      1.042584
H      5.87395     10.62451     13.33282         0.087122     -0.043995     -0.448112
H     15.10445     10.35389     13.33282        -0.152829     -0.170072     -0.479936
H     10.35389      7.64558      5.87395         0.088421      1.010491      0.233114
H     10.62451      7.64558     15.10445         0.002433      0.271246     -0.166953
H     10.62451     13.33282      5.87395        -0.104798     -0.394744      0.322368
H     10.35389     13.33282     15.10445        -0.437496     -0.597591     -0.008228
H      7.64558      5.87395     10.35389         0.505251      0.099245     -0.070587
H      7.64558     15.10445     10.62451         0.926935     -0.231471     -0.152949
H     13.33282      5.87395     10.62451        -0.592672      0.108923     -0.070983
H     13.33282     15.10445     10.35389        -0.591098     -0.055880      0.239780
H     12.45634     12.45634     19.01126         0.234745      0.279388     -0.236684
H     19.01126     19.01126     19.01126        -0.250295     -0.248567     -0.242206
H     19.01126     12.45634     12.45634        -0.265987      0.265234      0.220278
H     12.45634     19.01126     12.45634         0.237302     -0.266555      0.238840
C     10.35284      5.61067      6.59456        -0.203130     -0.684646      0.094890
C     10.62556     15.36773      6.59456        -0.044549      0.386972     -0.838414
C     10.62556      5.61067     14.38384        -0.005756     -0.055043      0.683049
C     10.35284     15.36773     14.38384         0.189510      0.697453      0.163954
C      6.59456     10.35284      5.61067        -0.338653     -0.019777     -0.293458
C      6.59456     10.62556     15.36773        -1.063361      0.271207      0.304606
C     14.38384     10.62556      5.61067         0.414539      0.356619     -0.676949
C     14.38384     10.35284     15.36773         1.030201      0.010191      0.270533
C      5.61067      6.59456     10.35284        -0.381961     -0.396188      0.372463
C     15.36773      6.59456     10.62556         0.189771     -0.501783      0.018022
C      5.61067     14.38384     10.62556        -0.201831      0.584161      0.007046
C     15.36773     14.38384     10.35284         0.347755      0.052472     -0.136756
C      5.61067     10.35284      6.59456        -0.322277     -0.079679     -1.020662
C     15.36773     10.62556      6.59456         0.868668     -0.337086     -0.975660
C      5.61067     10.62556     14.38384        -0.432836      0.030767      0.300273
C     15.36773     10.35284     14.38384         0.656035     -0.095928      1.081021
C     10.35284      6.59456      5.61067        -0.231894     -0.567196     -0.925664
C     10.62556      6.59456     15.36773         0.056750     -0.270452      0.046121
C     10.62556     14.38384      5.61067         0.079054      1.204747     -0.426431
C     10.35284     14.38384     15.36773         0.263505      0.151875      0.698958
C      6.59456      5.61067     10.35284        -0.213707     -0.744318      0.121010
C      6.59456     15.36773     10.62556        -1.216591      0.254333      0.149778
C     14.38384      5.61067     10.62556         1.020050     -0.293645      0.034826
C     14.38384     15.36773     10.35284        -0.499749      0.811136     -0.401055
C     10.40319      3.19606      7.29314        -0.028861      0.863305     -0.408308
C     10.35913      4.25547      6.23373         0.054398     -0.500766      0.550867
C      0.08601      7.29314      7.29314        -0.022084     -0.432027     -0.349940
C      0.13007      6.23373      6.23373        -0.022560      0.015403      0.102466
C      0.08601      3.19606      3.19606         0.007879      1.268592      0.189698
C      0.13007      4.25547      4.25547        -0.046363     -0.216504     -0.205505
C     10.40319      7.29314      3.19606        -0.013211     -1.051976      0.368987
C     10.35913      6.23373      4.25547         0.033007      0.466097     -0.667879
C      7.29314     10.40319      3.19606        -0.317427      0.035094      0.723155
C      6.23373     10.35913      4.25547         0.162208      0.076324     -0.103643
C      7.29314      0.08601      7.29314        -0.633573     -0.023818     -0.271042
C      6.23373      0.13007      6.23373         0.378371     -0.082081      0.506387
C      3.19606      0.08601      3.19606         0.998854     -0.007178      0.253608
C      4.25547      0.13007      4.25547        -0.140813     -0.040907     -0.513605
C      3.19606     10.40319      7.29314         0.385269     -0.012935     -0.960245
C      4.25547     10.35913      6.23373        -0.275785      0.095741      0.250807
C      3.19606      7.29314     10.40319         0.506310     -1.313584     -0.040617
C      4.25547      6.23373     10.35913        -0.521040      0.761020      0.108010
C      7.29314      7.29314      0.08601        -0.397082     -0.222597     -0.002032
C      6.23373      6.23373      0.13007         0.158543      0.144535     -0.004353
C      3.19606      3.19606      0.08601         0.252711      0.258895     -0.017250
C      4.25547      4.25547      0.13007        -0.117484     -0.056213      0.010135
C      7.29314      3.19606     10.40319        -0.386734      0.655006      0.008544
C      6.23373      4.25547     10.35913         1.113603     -0.066484      0.052161
O     10.43466      3.58206      8.50569        -0.026195      0.048039      0.447492
O     10.54374     17.39634      8.50569        -0.006729     -0.105292      0.455196
O     10.54374      3.58206     12.47271         0.040204     -0.106137     -0.131491
O     10.43466     17.39634     12.47271        -0.058747     -0.044910     -0.470546
O      8.50569     10.43466      3.58206         0.295704     -0.032706     -0.031972
O      8.50569     10.54374     17.39634         0.709151      0.024881     -0.191581
O     12.47271     10.54374      3.58206        -0.786735     -0.040092      0.151175
O     12.47271     10.43466     17.39634        -0.299711     -0.027164      0.028783
O      3.58206      8.50569     10.43466         0.156231      1.082304     -0.034444
O     17.39634      8.50569     10.54374        -0.095315      0.425682      0.058658
O      3.58206     12.47271     10.54374         0.068460     -0.402893      0.037648
O     17.39634     12.47271     10.43466        -0.159631     -0.686253     -0.006713
O      3.58206     10.43466      8.50569         0.061258     -0.069292      0.795327
O     17.39634     10.54374      8.50569        -0.064104      0.046946      0.337067
O      3.58206     10.54374     12.47271        -0.014287      0.037613     -0.241283
O     17.39634     10.43466     12.47271        -0.249831      0.005381     -0.710667
O     10.43466      8.50569      3.58206         0.117808      0.832721      0.194900
O     10.54374      8.50569     17.39634         0.033647      0.629433     -0.150122
O     10.54374     12.47271      3.58206         0.004372     -1.012632      0.179864
O     10.43466     12.47271     17.39634        -0.034903     -0.915233     -0.204659
O      8.50569      3.58206     10.43466         0.554382      0.119001     -0.016134
O      8.50569     17.39634     10.54374         0.518375     -0.200359     -0.010644
O     12.47271      3.58206     10.54374        -0.471579      0.157679      0.057532
O     12.47271     17.39634     10.43466        -0.412677      0.023777     -0.005392
O     11.90042     11.90042     19.56718        -0.265136     -0.329520      0.254694
O     19.56718     19.56718     19.56718         0.280931      0.291426      0.283168
O     19.56718     11.90042     11.90042         0.299866     -0.301344     -0.202954
O     11.90042     19.56718     11.90042        -0.267838      0.285774     -0.247689
O      9.45224      1.03696      9.45224        -0.079408      0.045711     -0.060384
O      1.03696      9.45224      9.45224         0.041082     -0.153587     -0.119772
O      1.03696      1.03696      1.03696         0.021653      0.117715      0.200062
O      9.45224      9.45224      1.03696        -0.066794     -0.086358      0.120190
Zr     10.48920      2.52580     10.48920        -0.046577     -0.115555     -0.168430
Zr     10.48920     18.45260     10.48920         0.014993      0.214282     -0.022620
Zr     10.48920     10.48920      2.52580        -0.158224     -0.187084     -0.521249
Zr     10.48920     10.48920     18.45260        -0.022574      0.005303      0.449410
Zr      2.52580     10.48920     10.48920        -0.358963      0.290370      0.192388
Zr     18.45260     10.48920     10.48920         0.202398      0.050073     -0.206482
Pd      8.37968      9.74764     13.23838        -0.005401     -0.009653     -0.036760
Pd     10.51424      9.46573     10.19110        -0.059256      0.031255      0.061829
Pd     13.12169      8.74282     12.46754        -0.037076      0.055001     -0.023400
Pd     10.33373     10.75212     15.05163        -0.014600     -0.011221      0.015293
Pd     12.85786     11.34354     13.52791         0.000103      0.036151      0.009099
Pd     14.86115     10.66874     11.35322         0.000946     -0.065353      0.005581
Pd      6.85770      7.61404     12.30369         0.008005     -0.036161      0.043788
Pd      9.22224      7.20715      9.48303        -0.012189      0.011691     -0.008964
Pd      9.54983      7.55483     12.20949         0.014902     -0.005673      0.001821
Pd     11.74999      7.11604     10.82851         0.006419     -0.026946      0.015878
Pd     11.63286      7.82874      8.27398        -0.012858      0.004914     -0.020964
Pd      7.15386     11.69900     11.54958         0.009453     -0.026261     -0.019021
Pd      9.28677     14.32610      9.29045        -0.002072     -0.038276     -0.027377
Pd      8.15433     12.34317     14.06667        -0.020934     -0.070467     -0.021796
Pd     14.24424     14.21332      8.33658        -0.031279     -0.011330      0.017442
Pd     11.74605     13.32311      8.80062        -0.021816     -0.001078      0.034749
Pd     14.12533     11.64117      8.98677         0.001582     -0.042125     -0.006005
Pd      8.71768     13.97490     12.03381        -0.004339      0.027887      0.012780
Pd     12.21925     13.96944     13.94788        -0.019218     -0.002656      0.022160
Pd     11.40456     14.11893     11.31383         0.012221      0.029275     -0.018268
Pd     14.01556     13.32182     12.09040        -0.016241     -0.007461      0.006362
Pd     12.27453     11.53077     10.87738        -0.031306      0.017716      0.046697
Pd     12.99052     12.63840      6.59378         0.045329     -0.038881     -0.033137
Pd     13.96230      8.83753      7.57805         0.016571      0.007985     -0.021152
Pd      6.98310      8.45894      8.40435        -0.014675      0.023001     -0.016402
Pd      5.55099     10.04558     10.04219         0.015063     -0.003804      0.065944
Pd      9.40979      9.46751      7.49591        -0.023202     -0.029767     -0.062107
Pd      8.48582      6.97745      6.88458         0.010019      0.015443      0.005388
Pd      9.64936     11.94314     10.54877         0.030375     -0.025146     -0.025126
Pd     11.82103     10.62219      8.05138        -0.006074     -0.011439      0.014117
Pd     11.78580      8.93889      5.85653        -0.008804     -0.021798      0.034059
Pd     10.61526     11.34146      5.74822        -0.032528     -0.010802     -0.008607
Ir     10.84967      9.78194     12.69640        -0.040239      0.029168     -0.009017
Ir     13.16949      9.26858      9.95441         0.008763     -0.019200      0.022426
Ir     10.49844     12.24062     12.90537         0.033610      0.014666     -0.015725
Ir      7.75090     11.02187      9.05263        -0.034142     -0.044059      0.029217
Ir      9.60608     12.06690      7.98344        -0.020922      0.052599     -0.003781
Ir      8.02445      9.23132     10.72059         0.003680     -0.017680      0.036482
