152
# total energy = -1002.56053979 eVH     10.35389      5.87395      7.64558         0.094398      0.082030      1.240515
H     10.62451     15.10445      7.64558         0.001996     -0.053489      1.060542
H     10.62451      5.87395     13.33282         0.177022      0.038049     -1.206962
H     10.35389     15.10445     13.33282        -0.233561     -0.147885     -1.023407
H      7.64558     10.35389      5.87395         0.921568      0.392789     -0.259180
H      7.64558     10.62451     15.10445         0.699308      0.234855      0.073627
H     13.33282     10.62451      5.87395        -0.851995      0.315150     -0.010363
H     13.33282     10.35389     15.10445        -0.652984     -0.104145      0.036205
H      5.87395      7.64558     10.35389        -0.327831      2.073569      0.337579
H     15.10445      7.64558     10.62451         0.100538      1.575763      0.086553
H      5.87395     13.33282     10.62451        -0.103947     -1.098870     -0.347043
H     15.10445     13.33282     10.35389         0.075816     -1.178153     -0.311014
H      5.87395     10.35389      7.64558        -0.950509      0.347297      1.375079
H     15.10445     10.62451      7.64558         0.301944      0.541409      1.423197
H      5.87395     10.62451     13.33282        -1.011607      0.577442     -1.393558
H     15.10445     10.35389     13.33282         0.914206     -0.059896     -1.147325
H     10.35389      7.64558      5.87395         0.425998      1.190523     -0.122484
H     10.62451      7.64558     15.10445         0.260285      0.650487     -0.089029
H     10.62451     13.33282      5.87395        -0.517740     -1.134274     -0.074446
H     10.35389     13.33282     15.10445        -0.130410     -0.497198     -0.145314
H      7.64558      5.87395     10.35389         0.719163     -0.123527      0.012534
H      7.64558     15.10445     10.62451         0.560028     -0.148992     -0.106922
H     13.33282      5.87395     10.62451        -0.911643      0.043889      0.156114
H     13.33282     15.10445     10.35389        -0.443020     -0.091090     -0.068479
H     12.45634     12.45634     19.01126         0.256781      0.236158     -0.248138
H     19.01126     19.01126     19.01126        -0.253738     -0.250176     -0.239487
H     19.01126     12.45634     12.45634        -0.257742      0.267051      0.231312
H     12.45634     19.01126     12.45634         0.264305     -0.267930      0.223932
C     10.35284      5.61067      6.59456        -0.082073     -0.991232     -1.052695
C     10.62556     15.36773      6.59456        -0.125748      0.556284     -0.866440
C     10.62556      5.61067     14.38384        -0.239039     -0.499807      1.545584
C     10.35284     15.36773     14.38384         0.190983      0.283282      1.032772
C      6.59456     10.35284      5.61067        -1.840549      0.162062     -1.165148
C      6.59456     10.62556     15.36773        -1.039374      0.194926      0.840944
C     14.38384     10.62556      5.61067         1.664581      0.144157     -0.893061
C     14.38384     10.35284     15.36773         1.077702     -0.005725      0.675997
C      5.61067      6.59456     10.35284        -0.562826     -1.520590     -0.019587
C     15.36773      6.59456     10.62556         0.542450     -0.744460      0.092879
C      5.61067     14.38384     10.62556        -0.271194      1.157338      0.118126
C     15.36773     14.38384     10.35284         0.258452      1.304498      0.070223
C      5.61067     10.35284      6.59456        -0.444538      0.004423     -1.761034
C     15.36773     10.62556      6.59456         0.451495      0.085192     -1.245517
C      5.61067     10.62556     14.38384        -0.149425     -0.071105      1.738614
C     15.36773     10.35284     14.38384         0.098722     -0.017378      1.622028
C     10.35284      6.59456      5.61067         0.000769     -1.168852     -0.745020
C     10.62556      6.59456     15.36773         0.105992     -0.604392      0.612848
C     10.62556     14.38384      5.61067         0.148915      1.001373     -0.557249
C     10.35284     14.38384     15.36773        -0.043849      0.465220      0.465379
C      6.59456      5.61067     10.35284        -0.486873     -1.135601     -0.000460
C      6.59456     15.36773     10.62556        -0.736003      0.706567     -0.035118
C     14.38384      5.61067     10.62556         0.584391     -0.826215     -0.140206
C     14.38384     15.36773     10.35284         0.439607      0.554515     -0.037932
C     10.40319      3.19606      7.29314        -0.025331      0.309954     -0.751608
C     10.35913      4.25547      6.23373        -0.054368     -0.571310      0.151344
C      0.08601      7.29314      7.29314        -0.007242     -0.429492     -0.319907
C      0.13007      6.23373      6.23373        -0.016454      0.397875      0.283698
C      0.08601      3.19606      3.19606         0.016272      0.458459      0.523830
C      0.13007      4.25547      4.25547         0.007970     -0.464436     -0.464628
C     10.40319      7.29314      3.19606        -0.055401     -0.841873      0.281743
C     10.35913      6.23373      4.25547         0.002437      0.316043     -0.650585
C      7.29314     10.40319      3.19606        -0.747073     -0.017882      0.107370
C      6.23373     10.35913      4.25547         0.349017     -0.035899     -0.389947
C      7.29314      0.08601      7.29314        -0.455537     -0.055961     -0.268071
C      6.23373      0.13007      6.23373         0.476018     -0.155170      0.308276
C      3.19606      0.08601      3.19606         0.843350     -0.027619      0.211420
C      4.25547      0.13007      4.25547        -0.466875     -0.219051     -0.540079
C      3.19606     10.40319      7.29314         0.309608     -0.000156     -0.201461
C      4.25547     10.35913      6.23373        -0.281749     -0.027414      0.376896
C      3.19606      7.29314     10.40319         0.264480     -0.417508      0.006771
C      4.25547      6.23373     10.35913        -0.809309      0.148755      0.072602
C      7.29314      7.29314      0.08601        -0.413140     -0.364753     -0.003365
C      6.23373      6.23373      0.13007         0.771109      0.087027     -0.003636
C      3.19606      3.19606      0.08601         0.743046      0.328087     -0.001236
C      4.25547      4.25547      0.13007        -0.352687     -0.654158     -0.048697
C      7.29314      3.19606     10.40319        -0.323203      0.395718      0.016251
C      6.23373      4.25547     10.35913         0.419376     -0.416671      0.067607
O     10.43466      3.58206      8.50569         0.080196      0.231569      0.675246
O     10.54374     17.39634      8.50569         0.018262     -0.159489      0.431812
O     10.54374      3.58206     12.47271         0.095970      0.166676     -0.531924
O     10.43466     17.39634     12.47271        -0.026584     -0.078125     -0.356862
O      8.50569     10.43466      3.58206         0.682727     -0.112325      0.235122
O      8.50569     10.54374     17.39634         0.587273     -0.010366     -0.235266
O     12.47271     10.54374      3.58206        -0.786703      0.069904      0.283086
O     12.47271     10.43466     17.39634        -0.480327      0.007856     -0.216790
O      3.58206      8.50569     10.43466         0.174722      0.570431     -0.021267
O     17.39634      8.50569     10.54374        -0.152234      0.503859      0.038174
O      3.58206     12.47271     10.54374         0.082072     -0.406712      0.030460
O     17.39634     12.47271     10.43466        -0.176849     -0.517579     -0.028407
O      3.58206     10.43466      8.50569         0.171244     -0.022231      0.356119
O     17.39634     10.54374      8.50569        -0.138355      0.063393      0.380292
O      3.58206     10.54374     12.47271         0.033133      0.049451     -0.230111
O     17.39634     10.43466     12.47271        -0.056982     -0.013389     -0.198621
O     10.43466      8.50569      3.58206        -0.090773      0.726850      0.168086
O     10.54374      8.50569     17.39634        -0.005883      0.568979     -0.190871
O     10.54374     12.47271      3.58206         0.033706     -0.512384      0.087594
O     10.43466     12.47271     17.39634        -0.021440     -0.411402     -0.076630
O      8.50569      3.58206     10.43466         0.556003      0.138413     -0.036347
O      8.50569     17.39634     10.54374         0.586013     -0.183924      0.042181
O     12.47271      3.58206     10.54374        -0.742097      0.187246      0.025318
O     12.47271     17.39634     10.43466        -0.508220     -0.141759     -0.025375
O     11.90042     11.90042     19.56718        -0.298373     -0.255184      0.285683
O     19.56718     19.56718     19.56718         0.300643      0.309493      0.282469
O     19.56718     11.90042     11.90042         0.313597     -0.305493     -0.228659
O     11.90042     19.56718     11.90042        -0.311814      0.329828     -0.210098
O      9.45224      1.03696      9.45224        -0.023752      0.096403     -0.059911
O      1.03696      9.45224      9.45224         0.053580     -0.020098     -0.068176
O      1.03696      1.03696      1.03696         0.040222      0.085738      0.113774
O      9.45224      9.45224      1.03696        -0.048391     -0.024867      0.142101
Zr     10.48920      2.52580     10.48920        -0.177788     -0.282892      0.023901
Zr     10.48920     18.45260     10.48920         0.073926      0.088719     -0.077911
Zr     10.48920     10.48920      2.52580        -0.002309      0.064275     -0.399560
Zr     10.48920     10.48920     18.45260         0.001397     -0.054458      0.219195
Zr      2.52580     10.48920     10.48920        -0.096246     -0.108623     -0.067048
Zr     18.45260     10.48920     10.48920         0.095761     -0.010980     -0.084410
Pd     11.82734      8.57801     10.29524        -0.223631      0.078522     -0.095004
Pd      7.09974     10.14432     10.35225         0.047726     -0.018540      0.330268
Pd      7.21611     12.59562     11.74297         0.053893     -0.208481     -0.009191
Pd     11.96321     13.29502      7.30790         0.021672      0.023447      0.120416
Pd     11.41424      8.29016      7.46357        -0.170506     -0.051697      0.220146
Pd      8.79017      7.16852      7.31002        -0.031929      0.080058      0.032775
Pd     11.51172     10.92878      6.06434         0.121933      0.037937      0.024044
Pd     13.56393      9.54123      7.63100         0.381702      0.039470     -0.043342
Pd      9.37277     11.84372      7.35559         0.139293     -0.027086      0.110675
Pd      7.09384      7.78425     11.79567        -0.104500     -0.107337     -0.123658
Pd      6.83660      7.72760      8.81125        -0.022190     -0.189871      0.180856
Pd      7.45296     10.08626     12.95018         0.302976     -0.132285     -0.084668
Pd     11.52823      6.11657      9.08247        -0.111752     -0.012245      0.033389
Pd      9.38520      9.45803      5.93987         0.007516      0.151497      0.036015
Pd      9.27993     14.10096      8.73901         0.011313      0.075372      0.080163
Pd     11.52035      6.33990     11.73405        -0.076852     -0.053988     -0.001689
Pd      9.59868      9.32150      9.00577         0.492521     -0.115755      0.164744
Pd      9.27360     11.79066     10.14532         0.088714     -0.101491     -0.122300
Pd      9.31536      7.05475     10.27133         0.129395      0.110364      0.013472
Pd      9.17961      7.22637     13.16930         0.070044     -0.069054      0.123172
Pd      9.48258      9.41564     11.61074         0.022597      0.066301     -0.107718
Pd     11.61016     10.97977      8.75461        -0.073723     -0.070053      0.251223
Pd      7.06303     12.48912      8.81553         0.085226      0.080212      0.171542
Pd      7.56848      9.96883      7.86901        -0.153137      0.060869     -0.353145
Pd     13.90615      7.37524      8.97149        -0.078306     -0.175815     -0.022042
Pd     13.83374      7.84075     12.09597        -0.122929      0.110957     -0.020826
Pd      9.42981     11.92874     12.95618        -0.051409     -0.151998      0.110285
Pd     13.93138     12.33080      8.75611         0.071934      0.026946      0.026170
Pd     13.44757     10.42461     12.80217        -0.035884      0.049748     -0.083402
Pd     13.92185     10.09939     10.24882         0.137792     -0.017179     -0.079256
Pd     11.47810     11.16775     11.41243         0.125424     -0.138424      0.051711
Pd     11.57924     13.46707      9.97953         0.034410     -0.057742     -0.003060
Pd     13.69364     12.68493     11.46777         0.114448     -0.107369     -0.066738
Pd     11.68056     13.56718     12.86383        -0.003802     -0.083104      0.003924
Pd     11.52900     11.32954     14.38196         0.078605     -0.025144     -0.002347
Pd     11.52097      8.70378     13.07480         0.130642      0.047953      0.107672
Pd      9.51032      9.57296     14.56646        -0.056886      0.087806      0.048938
Pd      9.43993     14.18917     11.42165        -0.051181     -0.027487     -0.024137
