152
# total energy = -1024.28801412 eVH     10.35389      5.87395      7.64558         0.466414      0.045123      0.740728
H     10.62451     15.10445      7.64558         0.009519     -0.186758      0.579308
H     10.62451      5.87395     13.33282         0.113443      0.157513     -0.593937
H     10.35389     15.10445     13.33282        -0.414790     -0.053241     -0.762115
H      7.64558     10.35389      5.87395         0.338843      0.006284      0.174762
H      7.64558     10.62451     15.10445         0.855596     -0.347668     -0.031619
H     13.33282     10.62451      5.87395        -0.761605     -0.036086      0.156322
H     13.33282     10.35389     15.10445        -0.867249     -0.373556      0.180651
H      5.87395      7.64558     10.35389         0.211117      0.593069     -0.033378
H     15.10445      7.64558     10.62451        -0.142582      0.401623     -0.040788
H      5.87395     13.33282     10.62451         0.164306     -0.514406     -0.106587
H     15.10445     13.33282     10.35389        -0.094884     -1.157089     -0.015171
H      5.87395     10.35389      7.64558         0.136448      0.127591      0.496066
H     15.10445     10.62451      7.64558         0.052647      0.075701      1.037812
H      5.87395     10.62451     13.33282         0.112896     -0.037641     -0.421766
H     15.10445     10.35389     13.33282        -0.111199     -0.158597     -0.597035
H     10.35389      7.64558      5.87395         0.024239      0.972182      0.254392
H     10.62451      7.64558     15.10445         0.011726      0.279707     -0.178532
H     10.62451     13.33282      5.87395        -0.088396     -0.445365      0.325403
H     10.35389     13.33282     15.10445        -0.447161     -0.655687     -0.025086
H      7.64558      5.87395     10.35389         0.478456      0.120360      0.045568
H      7.64558     15.10445     10.62451         0.884722     -0.259526     -0.016761
H     13.33282      5.87395     10.62451        -0.563587      0.142346     -0.076939
H     13.33282     15.10445     10.35389        -0.645331     -0.060406      0.215330
H     12.45634     12.45634     19.01126         0.239106      0.274885     -0.235561
H     19.01126     19.01126     19.01126        -0.252800     -0.246594     -0.242403
H     19.01126     12.45634     12.45634        -0.261294      0.269003      0.222049
H     12.45634     19.01126     12.45634         0.231286     -0.264506      0.242629
C     10.35284      5.61067      6.59456        -0.191537     -0.623078      0.059985
C     10.62556     15.36773      6.59456        -0.020702      0.377904     -0.744677
C     10.62556      5.61067     14.38384        -0.018103     -0.071158      0.718548
C     10.35284     15.36773     14.38384         0.146374      0.729259      0.170074
C      6.59456     10.35284      5.61067        -0.376970     -0.025214     -0.267285
C      6.59456     10.62556     15.36773        -1.011800      0.349520      0.390682
C     14.38384     10.62556      5.61067         0.416983      0.310622     -0.603033
C     14.38384     10.35284     15.36773         0.938787     -0.008897      0.355629
C      5.61067      6.59456     10.35284        -0.388660     -0.477269      0.230852
C     15.36773      6.59456     10.62556         0.196625     -0.528157      0.028429
C      5.61067     14.38384     10.62556        -0.177893      0.563500      0.011579
C     15.36773     14.38384     10.35284         0.349879      0.021026     -0.120515
C      5.61067     10.35284      6.59456        -0.303969     -0.062395     -0.909266
C     15.36773     10.62556      6.59456         0.762293     -0.291853     -1.066299
C      5.61067     10.62556     14.38384        -0.482228      0.006041      0.297684
C     15.36773     10.35284     14.38384         0.664247     -0.106761      1.129700
C     10.35284      6.59456      5.61067        -0.249767     -0.636198     -0.848894
C     10.62556      6.59456     15.36773         0.050030     -0.292741      0.079675
C     10.62556     14.38384      5.61067         0.113740      1.238598     -0.443404
C     10.35284     14.38384     15.36773         0.207886      0.118704      0.705035
C      6.59456      5.61067     10.35284        -0.371481     -0.730036      0.065471
C      6.59456     15.36773     10.62556        -1.219392      0.281791      0.074081
C     14.38384      5.61067     10.62556         0.884900     -0.274096      0.025918
C     14.38384     15.36773     10.35284        -0.492727      0.746655     -0.324007
C     10.40319      3.19606      7.29314        -0.016021      0.828101     -0.393232
C     10.35913      4.25547      6.23373         0.042768     -0.454863      0.584246
C      0.08601      7.29314      7.29314        -0.018136     -0.491871     -0.351319
C      0.13007      6.23373      6.23373        -0.018612      0.015897      0.094225
C      0.08601      3.19606      3.19606        -0.001693      1.212410      0.184073
C      0.13007      4.25547      4.25547        -0.051461     -0.218793     -0.228852
C     10.40319      7.29314      3.19606        -0.002354     -1.051743      0.394000
C     10.35913      6.23373      4.25547         0.026280      0.469510     -0.653635
C      7.29314     10.40319      3.19606        -0.377990      0.043068      0.820410
C      6.23373     10.35913      4.25547         0.227759      0.087711     -0.117967
C      7.29314      0.08601      7.29314        -0.592953     -0.023865     -0.262758
C      6.23373      0.13007      6.23373         0.381631     -0.064258      0.445490
C      3.19606      0.08601      3.19606         0.892757     -0.015175      0.346164
C      4.25547      0.13007      4.25547        -0.105496     -0.057305     -0.494623
C      3.19606     10.40319      7.29314         0.472440     -0.001030     -0.764735
C      4.25547     10.35913      6.23373        -0.253094      0.105152      0.245942
C      3.19606      7.29314     10.40319         0.487950     -1.351534     -0.042944
C      4.25547      6.23373     10.35913        -0.375399      0.807787      0.042371
C      7.29314      7.29314      0.08601        -0.419352     -0.230282     -0.009550
C      6.23373      6.23373      0.13007         0.164243      0.145201     -0.016048
C      3.19606      3.19606      0.08601         0.247731      0.259147     -0.020386
C      4.25547      4.25547      0.13007        -0.098103     -0.049135      0.017643
C      7.29314      3.19606     10.40319        -0.360552      0.685304      0.013153
C      6.23373      4.25547     10.35913         1.100413      0.049793      0.003538
O     10.43466      3.58206      8.50569        -0.029899      0.059176      0.451929
O     10.54374     17.39634      8.50569        -0.004026     -0.086523      0.434731
O     10.54374      3.58206     12.47271         0.044165     -0.089559     -0.143562
O     10.43466     17.39634     12.47271        -0.056566     -0.045308     -0.474514
O      8.50569     10.43466      3.58206         0.317144     -0.031610     -0.046108
O      8.50569     10.54374     17.39634         0.684385      0.027460     -0.168198
O     12.47271     10.54374      3.58206        -0.734771     -0.034481      0.144377
O     12.47271     10.43466     17.39634        -0.441496     -0.027091     -0.044082
O      3.58206      8.50569     10.43466         0.139581      1.090466     -0.002091
O     17.39634      8.50569     10.54374        -0.080505      0.410085      0.065457
O      3.58206     12.47271     10.54374         0.069495     -0.416404      0.040463
O     17.39634     12.47271     10.43466        -0.158789     -0.700637      0.004510
O      3.58206     10.43466      8.50569         0.028933     -0.073523      0.655180
O     17.39634     10.54374      8.50569        -0.064879      0.043550      0.331132
O      3.58206     10.54374     12.47271        -0.007553      0.024461     -0.304860
O     17.39634     10.43466     12.47271        -0.241735      0.019786     -0.750548
O     10.43466      8.50569      3.58206         0.113839      0.850997      0.201367
O     10.54374      8.50569     17.39634         0.034993      0.674541     -0.162117
O     10.54374     12.47271      3.58206        -0.015165     -1.015489      0.213148
O     10.43466     12.47271     17.39634        -0.029572     -0.883621     -0.192433
O      8.50569      3.58206     10.43466         0.520085      0.101186     -0.019726
O      8.50569     17.39634     10.54374         0.537226     -0.209871     -0.015693
O     12.47271      3.58206     10.54374        -0.467498      0.154983      0.056330
O     12.47271     17.39634     10.43466        -0.377784      0.045122     -0.009359
O     11.90042     11.90042     19.56718        -0.276239     -0.325765      0.262228
O     19.56718     19.56718     19.56718         0.281894      0.283896      0.287284
O     19.56718     11.90042     11.90042         0.290028     -0.305188     -0.198719
O     11.90042     19.56718     11.90042        -0.270238      0.279133     -0.246032
O      9.45224      1.03696      9.45224        -0.086787      0.055289     -0.053612
O      1.03696      9.45224      9.45224         0.036240     -0.174221     -0.108073
O      1.03696      1.03696      1.03696         0.002603      0.108892      0.217636
O      9.45224      9.45224      1.03696        -0.056816     -0.086107      0.138812
Zr     10.48920      2.52580     10.48920        -0.020535     -0.115107     -0.174901
Zr     10.48920     18.45260     10.48920         0.020167      0.235089     -0.031166
Zr     10.48920     10.48920      2.52580        -0.087607     -0.165743     -0.552705
Zr     10.48920     10.48920     18.45260        -0.031021      0.043510      0.461921
Zr      2.52580     10.48920     10.48920        -0.364639      0.320441      0.096147
Zr     18.45260     10.48920     10.48920         0.200139      0.036544     -0.253767
Pd      8.58078      9.91860     13.22200        -0.020659     -0.021655      0.060206
Pd     10.53497      9.50810     10.28025        -0.050868      0.036748      0.011924
Pd     13.37301      8.73822     12.51295         0.038814     -0.035910     -0.081889
Pd     10.43267     10.63362     15.09534         0.034302      0.020002     -0.015100
Pd     12.99082     11.35626     13.45963        -0.022559      0.011308      0.094597
Pd     14.96734     10.71893     11.30190        -0.063488     -0.022872     -0.013979
Pd      6.82860      7.87802     12.54983        -0.024655     -0.060576     -0.015844
Pd      9.23496      7.22327      9.58565        -0.027666      0.001575     -0.083671
Pd      9.49405      7.53899     12.30123        -0.009278      0.035166      0.099307
Pd     11.75024      7.21961     10.97457         0.054459     -0.100975     -0.023523
Pd     11.59378      7.85703      8.35344         0.039382      0.030061      0.036575
Pd      7.16989     11.73452     11.63419        -0.027731      0.003889     -0.022299
Pd      9.20423     14.35226      9.37660         0.050426      0.004897     -0.038217
Pd      8.17786     12.40527     14.22023        -0.011153     -0.007345     -0.045008
Pd     14.12901     14.19233      8.35331         0.092191      0.046312     -0.017776
Pd     11.65268     13.34150      8.83299        -0.064128     -0.014928     -0.015150
Pd     14.08536     11.61493      8.94928         0.022705      0.047498      0.011011
Pd      8.76103     13.92144     12.13274        -0.039851      0.032455      0.018811
Pd     12.19847     13.91342     13.98757         0.045612     -0.017382     -0.045421
Pd     11.39359     14.09030     11.36978         0.039117      0.016122      0.031428
Pd     14.05438     13.43533     12.11990        -0.073726     -0.031047     -0.001365
Pd     12.33781     11.60097     10.90600        -0.047753      0.019293     -0.047610
Pd     12.87470     12.62326      6.60289         0.004126     -0.028967      0.055566
Pd     13.89254      8.89166      7.59370         0.029358     -0.020688      0.010321
Pd      6.96462      8.45447      8.51184        -0.006327      0.019158      0.004004
Pd      5.55708     10.02286     10.23513         0.008923      0.007970     -0.021796
Pd      9.34640      9.49228      7.58592         0.055378     -0.053439     -0.054008
Pd      8.50180      7.01273      6.96360         0.025247     -0.025564      0.034898
Pd      9.67426     11.94706     10.56809         0.072650     -0.048242     -0.008072
Pd     11.72996     10.65047      8.12151        -0.005465      0.041595     -0.068357
Pd     11.69048      8.99206      5.91622         0.037438      0.025056      0.055443
Pd     10.46158     11.36045      5.81086        -0.018154     -0.032096     -0.040136
Ir     11.05515      9.64694     12.75399        -0.046780      0.020433      0.001722
Ir     13.17994      9.30276     10.00503        -0.005325      0.014664     -0.025572
Ir     10.52000     12.10174     12.94130         0.009999     -0.035840     -0.003955
Ir      7.69483     11.01775      9.14436        -0.100162     -0.141063      0.069272
Ir      9.46307     12.12077      8.01825         0.171566      0.098960     -0.001026
Ir      8.06176      9.24330     10.81334        -0.041915      0.103816     -0.160205
