152
# total energy = -1004.52442028 eVH     10.35389      5.87395      7.64558        -0.126871      0.118050      0.662028
H     10.62451     15.10445      7.64558        -0.110793     -0.180393      0.532317
H     10.62451      5.87395     13.33282         0.399627      0.022031     -0.862568
H     10.35389     15.10445     13.33282         0.049301     -0.171713     -0.498258
H      7.64558     10.35389      5.87395         0.360148      0.044010      0.150129
H      7.64558     10.62451     15.10445         0.952909      0.633773      0.018166
H     13.33282     10.62451      5.87395        -0.463928      0.117325      0.156384
H     13.33282     10.35389     15.10445        -0.825761     -0.243596      0.033203
H      5.87395      7.64558     10.35389         0.219623      1.760048      0.188521
H     15.10445      7.64558     10.62451        -0.083763      0.510884      0.259287
H      5.87395     13.33282     10.62451         0.196112     -0.558968     -0.011547
H     15.10445     13.33282     10.35389         0.178371     -1.295716     -0.475487
H      5.87395     10.35389      7.64558         0.142591      0.043058      0.492578
H     15.10445     10.62451      7.64558        -0.212923      0.829107      1.325713
H      5.87395     10.62451     13.33282        -0.005750      0.520844     -1.197197
H     15.10445     10.35389     13.33282         0.055825     -0.202394     -0.795259
H     10.35389      7.64558      5.87395         0.221286      1.304082      0.110610
H     10.62451      7.64558     15.10445         0.522763      0.769609     -0.097073
H     10.62451     13.33282      5.87395        -0.410864     -0.693121      0.314361
H     10.35389     13.33282     15.10445        -0.250669     -0.495150     -0.329311
H      7.64558      5.87395     10.35389         1.164542     -0.227583     -0.075179
H      7.64558     15.10445     10.62451         0.838841     -0.188626     -0.010283
H     13.33282      5.87395     10.62451        -0.598927      0.125822      0.649751
H     13.33282     15.10445     10.35389        -0.550465     -0.022575     -0.245580
H     12.45634     12.45634     19.01126         0.267312      0.256189     -0.230257
H     19.01126     19.01126     19.01126        -0.269914     -0.262223     -0.222399
H     19.01126     12.45634     12.45634        -0.278049      0.256902      0.225930
H     12.45634     19.01126     12.45634         0.241593     -0.279860      0.243902
C     10.35284      5.61067      6.59456        -0.162056     -0.807092     -0.391244
C     10.62556     15.36773      6.59456         0.056978      0.237438     -0.319056
C     10.62556      5.61067     14.38384        -0.033035     -0.426609      0.577970
C     10.35284     15.36773     14.38384         0.007160      0.256550      0.492787
C      6.59456     10.35284      5.61067        -0.458446      0.041944     -0.305885
C      6.59456     10.62556     15.36773        -0.927748      0.166379      0.696055
C     14.38384     10.62556      5.61067         0.618955     -0.005791     -0.918610
C     14.38384     10.35284     15.36773         0.932300     -0.121679      0.352531
C      5.61067      6.59456     10.35284        -0.886104     -0.967258     -0.446289
C     15.36773      6.59456     10.62556         0.696819     -0.026696     -0.245276
C      5.61067     14.38384     10.62556        -0.249702      0.603890      0.013954
C     15.36773     14.38384     10.35284         0.316424      1.271041      0.082840
C      5.61067     10.35284      6.59456        -0.274076      0.015187     -0.700815
C     15.36773     10.62556      6.59456         0.529073     -0.300173     -0.834658
C      5.61067     10.62556     14.38384        -0.513959     -0.014359      0.785551
C     15.36773     10.35284     14.38384         0.500698     -0.082265      1.038744
C     10.35284      6.59456      5.61067        -0.083628     -0.906460     -0.375663
C     10.62556      6.59456     15.36773         0.125509     -0.780110      0.494965
C     10.62556     14.38384      5.61067         0.121809      1.107935     -0.308471
C     10.35284     14.38384     15.36773        -0.026241      1.056017      0.504347
C      6.59456      5.61067     10.35284        -0.538357     -1.244573      0.095046
C      6.59456     15.36773     10.62556        -1.000445      0.192329      0.099956
C     14.38384      5.61067     10.62556        -0.137022     -0.485031     -0.288761
C     14.38384     15.36773     10.35284         0.276518      0.577813     -0.064794
C     10.40319      3.19606      7.29314         0.010757      0.877012     -0.530033
C     10.35913      4.25547      6.23373         0.044417     -0.540365      0.135060
C      0.08601      7.29314      7.29314        -0.027789     -0.983979     -0.215125
C      0.13007      6.23373      6.23373        -0.092393      0.315353      0.318930
C      0.08601      3.19606      3.19606         0.053738      1.340961      0.146698
C      0.13007      4.25547      4.25547        -0.031049     -0.348410     -0.376473
C     10.40319      7.29314      3.19606        -0.003147     -0.487222      0.264451
C     10.35913      6.23373      4.25547        -0.015868      0.112380     -0.735004
C      7.29314     10.40319      3.19606        -0.298089      0.020342      0.516967
C      6.23373     10.35913      4.25547         0.209748      0.088001     -0.111117
C      7.29314      0.08601      7.29314        -1.024077     -0.099941     -0.377183
C      6.23373      0.13007      6.23373         0.689203     -0.198200      0.458214
C      3.19606      0.08601      3.19606         1.236906     -0.019213      0.423829
C      4.25547      0.13007      4.25547        -0.677619     -0.174166     -0.274313
C      3.19606     10.40319      7.29314         0.567317      0.023429     -0.360383
C      4.25547     10.35913      6.23373        -0.235191      0.104637      0.223659
C      3.19606      7.29314     10.40319         0.338831     -0.875223      0.035259
C      4.25547      6.23373     10.35913        -1.105266      0.144364      0.186874
C      7.29314      7.29314      0.08601        -0.471604     -0.502722     -0.015411
C      6.23373      6.23373      0.13007         0.486557      0.319122      0.003162
C      3.19606      3.19606      0.08601         0.528918      0.402016     -0.024146
C      4.25547      4.25547      0.13007        -0.024892     -0.727047     -0.094650
C      7.29314      3.19606     10.40319        -0.397307      0.505640      0.056277
C      6.23373      4.25547     10.35913         0.567721     -0.704508      0.221852
O     10.43466      3.58206      8.50569        -0.000360      0.078546      0.495271
O     10.54374     17.39634      8.50569         0.056208     -0.021728      0.263960
O     10.54374      3.58206     12.47271        -0.003230     -0.091512     -0.122077
O     10.43466     17.39634     12.47271        -0.037671     -0.132919     -0.478911
O      8.50569     10.43466      3.58206         0.377901     -0.025888      0.048973
O      8.50569     10.54374     17.39634         0.846968     -0.053361     -0.156887
O     12.47271     10.54374      3.58206        -0.892336      0.108786      0.060733
O     12.47271     10.43466     17.39634        -0.592289      0.023904     -0.148565
O      3.58206      8.50569     10.43466         0.191202      0.885431     -0.017785
O     17.39634      8.50569     10.54374        -0.151941      0.674529      0.041643
O      3.58206     12.47271     10.54374         0.105756     -0.543727      0.052810
O     17.39634     12.47271     10.43466        -0.165873     -0.602419     -0.036751
O      3.58206     10.43466      8.50569         0.077714     -0.059886      0.458204
O     17.39634     10.54374      8.50569         0.024825      0.096297      0.398155
O      3.58206     10.54374     12.47271        -0.030310      0.026252     -0.333434
O     17.39634     10.43466     12.47271        -0.200221     -0.034162     -0.655113
O     10.43466      8.50569      3.58206        -0.032688      0.578921      0.161457
O     10.54374      8.50569     17.39634        -0.090754      0.796815     -0.225272
O     10.54374     12.47271      3.58206         0.092025     -0.950413      0.128047
O     10.43466     12.47271     17.39634         0.069933     -0.733314     -0.191135
O      8.50569      3.58206     10.43466         0.570469      0.142536     -0.047671
O      8.50569     17.39634     10.54374         0.550228     -0.150101      0.003150
O     12.47271      3.58206     10.54374        -0.686670      0.153043      0.020096
O     12.47271     17.39634     10.43466        -0.421215     -0.050984     -0.034052
O     11.90042     11.90042     19.56718        -0.316594     -0.292074      0.240911
O     19.56718     19.56718     19.56718         0.305947      0.307255      0.217515
O     19.56718     11.90042     11.90042         0.333426     -0.272596     -0.233471
O     11.90042     19.56718     11.90042        -0.260129      0.344530     -0.263710
O      9.45224      1.03696      9.45224        -0.022006      0.081756     -0.129359
O      1.03696      9.45224      9.45224         0.068203     -0.040230     -0.132319
O      1.03696      1.03696      1.03696         0.082347      0.110658      0.081467
O      9.45224      9.45224      1.03696        -0.062629     -0.053377      0.063954
Zr     10.48920      2.52580     10.48920        -0.057157     -0.204447      0.029779
Zr     10.48920     18.45260     10.48920        -0.006839      0.081039      0.167719
Zr     10.48920     10.48920      2.52580        -0.289962     -0.414518     -0.331585
Zr     10.48920     10.48920     18.45260         0.083545      0.028841      0.418488
Zr      2.52580     10.48920     10.48920        -0.213734      0.102335      0.001996
Zr     18.45260     10.48920     10.48920         0.175287     -0.008453     -0.000854
Pd     13.05553      8.52391      9.81159        -0.033327      0.098320     -0.079388
Pd      6.20076      9.63271     10.22562         0.004636      0.046968      0.006845
Pd      6.98201     11.59394     11.77757        -0.087318      0.022901     -0.048040
Pd     12.36159     13.24487      7.31511        -0.074417     -0.059203      0.021064
Pd     12.13542      7.81735      7.09231        -0.001404     -0.035699      0.015510
Pd      8.46984      7.28189      6.89434         0.011334     -0.022913      0.010178
Pd     11.34603     11.43067      5.57478        -0.057218      0.014158      0.014313
Pd     14.55687      8.78605      7.58533        -0.060436     -0.036462     -0.064815
Pd      9.91543     11.82014      7.97465         0.026819     -0.020229     -0.001877
Pd      7.03900      7.13337     12.02860        -0.044870     -0.100995      0.040081
Pd      6.33619      7.50076      8.41426         0.055293     -0.024852     -0.034504
Pd      7.22236      9.11878     13.68690        -0.056379      0.033896     -0.044499
Pd     11.42134      6.35527      9.22411         0.061127      0.033639     -0.014949
Pd      9.99795      9.49837      6.61884        -0.036248     -0.007096     -0.010401
Pd      9.03717     14.00977      9.36353         0.071794     -0.007869     -0.037165
Pd     10.85442      7.46092     11.45762        -0.006245     -0.005213      0.038452
Pd     10.47393      9.10137      9.29068         0.087778      0.040691      0.028999
Pd      9.49402     11.53561     10.57436         0.039908      0.003826      0.067270
Pd      8.85567      7.10765      9.59299         0.002319      0.021560     -0.044790
Pd      9.19310      7.43444     13.48480        -0.019161     -0.058083     -0.035814
Pd      8.61908      9.21361     11.34219        -0.021617     -0.011490     -0.026760
Pd     12.26181     10.43763      7.87904         0.017295     -0.035093     -0.004117
Pd      7.30550     11.96002      9.14418        -0.078630     -0.019436     -0.014535
Pd      8.08556      9.57887      8.38517        -0.050710      0.016855      0.071997
Pd     14.01076      6.37821      8.51669         0.052383     -0.036351     -0.064744
Pd     13.14263      8.48699     12.44291        -0.003666      0.047303     -0.069179
Pd      8.99938     11.42921     13.37323         0.019573      0.076774      0.031038
Pd     13.89591     12.02903      9.07317         0.011744      0.011472      0.033245
Pd     13.16578     11.16729     13.17960         0.017623     -0.061753      0.013800
Pd     14.68194     10.36976     11.03115        -0.044123     -0.023899     -0.076630
Pd     12.03709     10.79211     10.72349         0.013924     -0.067530     -0.095051
Pd     11.52271     13.29755      9.78388         0.016197     -0.074457      0.160649
Pd     13.64437     13.13824     11.57205        -0.082704     -0.013372      0.051967
Pd     11.14727     12.78486     12.40527        -0.026338      0.033186     -0.017961
Pd     11.22591     11.59420     14.88100        -0.115568     -0.047110      0.043415
Pd     10.88244      9.72333     12.84973         0.027147     -0.059844      0.042655
Pd      9.54247      9.53173     15.21067         0.040573      0.015654      0.008680
Pd      8.70739     13.73135     12.00632         0.002123     -0.014127      0.044585
