9
# total energy = -56.16472982 eVC      0.00000      1.39359      7.50000         0.000000     -0.114926     -0.000000
C      4.77136      2.75474      7.50000         0.099529      0.057463      0.000000
C      1.20689     -0.69680      7.50000        -0.099529      0.057463      0.000000
C      0.00000      5.50949      7.50000        -0.000000      0.114926      0.000000
C      1.20689      0.69680      7.50000        -0.099529     -0.057463     -0.000000
C      4.77136     -2.75474      7.50000         0.099529     -0.057463     -0.000000
Au      2.98912     -1.72577      7.50000         0.000000      0.000000      0.000000
Au      0.00000      3.45154      7.50000         0.000000      0.000000      0.000000
Au      2.98912      1.72577      7.50000         0.000000      0.000000      0.000000
