20
# total energy = -167.56704768 eVC      8.01861      1.36083      7.50000         0.115417      0.128307      0.000000
C      1.41148     -0.17056      7.50000        -0.049773      0.072889      0.000000
C      8.34745     -5.42711      7.50000         0.091019     -0.024449      0.000000
C      0.87181      1.14758      7.50000        -0.115417     -0.128307      0.000000
C      7.47894      2.67897      7.50000         0.049773     -0.072889     -0.000000
C      0.54297      7.93552      7.50000        -0.091019      0.024449     -0.000000
C      7.70626     -4.17915      7.50000         0.069093     -0.043763     -0.000000
C      7.17571      0.24911      7.50000        -0.215706     -0.292990      0.000000
C      2.78508     -0.45256      7.50000         0.017708      0.016523      0.000000
C      1.18417      6.68755      7.50000        -0.069093      0.043763      0.000000
C      1.71471      2.25930      7.50000         0.215706      0.292990      0.000000
C      6.10534      2.96097      7.50000        -0.017708     -0.016523     -0.000000
N      6.77120     -3.46028      7.50000        -0.144902      0.100033      0.000000
N      6.46774     -0.69502      7.50000         0.133977      0.174273      0.000000
N      3.73020     -1.15910      7.50000         0.071151     -0.067909     -0.000000
N      2.11922      5.96868      7.50000         0.144902     -0.100033     -0.000000
N      2.42268      3.20343      7.50000        -0.133977     -0.174273     -0.000000
N      5.16022      3.66750      7.50000        -0.071151      0.067909     -0.000000
Ir      5.25602     -2.30131      7.50000         0.027042      0.032939     -0.000000
Ir      3.63440      4.80972      7.50000        -0.027042     -0.032939      0.000000
