152
# total energy = -1022.83249610 eVH     10.35389      5.87395      7.64558         0.475835      0.028559      0.919741
H     10.62451     15.10445      7.64558        -0.038022      0.034947      0.756212
H     10.62451      5.87395     13.33282         0.140559      0.116077     -0.599825
H     10.35389     15.10445     13.33282        -0.268875     -0.074054     -0.567659
H      7.64558     10.35389      5.87395         0.336404     -0.038868      0.191758
H      7.64558     10.62451     15.10445         0.613560     -0.184482     -0.140092
H     13.33282     10.62451      5.87395        -0.863603     -0.327544      0.165650
H     13.33282     10.35389     15.10445        -0.470470     -0.095712     -0.054222
H      5.87395      7.64558     10.35389         0.119076      1.129353     -0.141030
H     15.10445      7.64558     10.62451        -0.168566      0.402758     -0.085865
H      5.87395     13.33282     10.62451         0.143404     -0.406863     -0.070577
H     15.10445     13.33282     10.35389        -0.077126     -0.966254     -0.207660
H      5.87395     10.35389      7.64558         0.129424      0.036447      0.482847
H     15.10445     10.62451      7.64558         0.130596     -0.220069      0.795731
H      5.87395     10.62451     13.33282         0.271643     -0.028205     -0.392730
H     15.10445     10.35389     13.33282        -0.144702      0.011454     -0.636014
H     10.35389      7.64558      5.87395         0.071278      0.836389      0.117176
H     10.62451      7.64558     15.10445         0.030172      0.556682     -0.142326
H     10.62451     13.33282      5.87395         0.079504     -0.603799      0.183991
H     10.35389     13.33282     15.10445        -0.253692     -0.889609     -0.107652
H      7.64558      5.87395     10.35389         0.532048      0.033294     -0.143286
H      7.64558     15.10445     10.62451         0.904605     -0.212224      0.311068
H     13.33282      5.87395     10.62451        -0.433894      0.187137     -0.058755
H     13.33282     15.10445     10.35389        -1.011633     -0.098590      0.242568
H     12.45634     12.45634     19.01126         0.267419      0.257818     -0.223646
H     19.01126     19.01126     19.01126        -0.247953     -0.234832     -0.262371
H     19.01126     12.45634     12.45634        -0.242080      0.270395      0.238811
H     12.45634     19.01126     12.45634         0.210257     -0.283987      0.253091
C     10.35284      5.61067      6.59456        -0.127614     -0.428657     -0.437707
C     10.62556     15.36773      6.59456         0.019047      0.349221     -1.131929
C     10.62556      5.61067     14.38384        -0.022544     -0.223104      0.715576
C     10.35284     15.36773     14.38384         0.194389      0.771154      0.126745
C      6.59456     10.35284      5.61067        -0.431424     -0.041245     -0.188177
C      6.59456     10.62556     15.36773        -0.785226      0.145940      0.349633
C     14.38384     10.62556      5.61067         0.655283      0.277010     -0.363005
C     14.38384     10.35284     15.36773         0.745567     -0.124437      0.435346
C      5.61067      6.59456     10.35284        -0.429864     -0.771948      0.259393
C     15.36773      6.59456     10.62556         0.194798     -0.469230      0.047116
C      5.61067     14.38384     10.62556        -0.255048      0.386211     -0.022145
C     15.36773     14.38384     10.35284         0.402680      0.149549      0.197963
C      5.61067     10.35284      6.59456        -0.307915     -0.011626     -0.890536
C     15.36773     10.62556      6.59456         0.560859     -0.142654     -1.229917
C      5.61067     10.62556     14.38384        -0.465602      0.007002      0.915207
C     15.36773     10.35284     14.38384         0.532925     -0.181455      1.258353
C     10.35284      6.59456      5.61067        -0.032375     -0.930334     -0.684773
C     10.62556      6.59456     15.36773         0.040667     -0.663375      0.300581
C     10.62556     14.38384      5.61067         0.039796      1.271227     -0.697945
C     10.35284     14.38384     15.36773         0.087435      0.594304      0.670534
C      6.59456      5.61067     10.35284        -0.237370     -0.894107      0.128080
C      6.59456     15.36773     10.62556        -1.732797      0.498090      0.040285
C     14.38384      5.61067     10.62556         0.574363     -0.220896     -0.006368
C     14.38384     15.36773     10.35284         0.194121      0.546069     -0.242166
C     10.40319      3.19606      7.29314         0.017218      0.929279     -0.253663
C     10.35913      4.25547      6.23373        -0.053005     -0.357808      0.632184
C      0.08601      7.29314      7.29314        -0.009440     -0.235831     -0.471917
C      0.13007      6.23373      6.23373        -0.001413      0.114997      0.203717
C      0.08601      3.19606      3.19606        -0.017274      0.657110      0.178878
C      0.13007      4.25547      4.25547        -0.090317     -0.197349     -0.171523
C     10.40319      7.29314      3.19606        -0.000814     -0.696699      0.524791
C     10.35913      6.23373      4.25547        -0.004841      0.533613     -0.377236
C      7.29314     10.40319      3.19606        -0.352740      0.022480      0.849240
C      6.23373     10.35913      4.25547         0.216397      0.015700     -0.145570
C      7.29314      0.08601      7.29314        -0.309845     -0.047076     -0.268155
C      6.23373      0.13007      6.23373         0.264171     -0.059882      0.292522
C      3.19606      0.08601      3.19606         0.431988     -0.052697      1.314813
C      4.25547      0.13007      4.25547        -0.118470     -0.027413     -0.459134
C      3.19606     10.40319      7.29314         0.715895      0.015116     -0.262190
C      4.25547     10.35913      6.23373        -0.138244      0.035784      0.112632
C      3.19606      7.29314     10.40319         0.597177     -1.258404      0.027225
C      4.25547      6.23373     10.35913        -0.718602      0.830114      0.048291
C      7.29314      7.29314      0.08601        -0.663080     -0.170162     -0.022688
C      6.23373      6.23373      0.13007         0.172719      0.267368     -0.009703
C      3.19606      3.19606      0.08601         0.241276      0.253031     -0.019391
C      4.25547      4.25547      0.13007        -0.051695     -0.037653      0.012632
C      7.29314      3.19606     10.40319        -0.373953      0.780294      0.017274
C      6.23373      4.25547     10.35913         0.864391     -0.168154      0.015075
O     10.43466      3.58206      8.50569        -0.051066      0.027620      0.314664
O     10.54374     17.39634      8.50569        -0.024599     -0.183055      0.606446
O     10.54374      3.58206     12.47271         0.055503      0.059133     -0.320359
O     10.43466     17.39634     12.47271        -0.025627     -0.122325     -0.577241
O      8.50569     10.43466      3.58206         0.387922     -0.022291     -0.009970
O      8.50569     10.54374     17.39634         0.470712      0.053949     -0.142214
O     12.47271     10.54374      3.58206        -0.278775      0.050772     -0.083751
O     12.47271     10.43466     17.39634        -0.857689      0.021912     -0.223313
O      3.58206      8.50569     10.43466         0.039353      0.911275      0.038539
O     17.39634      8.50569     10.54374        -0.037687      0.337186      0.079016
O      3.58206     12.47271     10.54374         0.063415     -0.420589      0.063498
O     17.39634     12.47271     10.43466        -0.169755     -0.769172      0.018996
O      3.58206     10.43466      8.50569        -0.057635     -0.065867      0.222191
O     17.39634     10.54374      8.50569        -0.136044      0.042344      0.458568
O      3.58206     10.54374     12.47271        -0.028996     -0.050278     -0.894611
O     17.39634     10.43466     12.47271        -0.197371      0.041074     -0.758716
O     10.43466      8.50569      3.58206         0.044510      0.689490      0.194266
O     10.54374      8.50569     17.39634         0.053702      0.429790     -0.077248
O     10.54374     12.47271      3.58206        -0.011733     -0.734908      0.229665
O     10.43466     12.47271     17.39634         0.051323     -0.861847     -0.276966
O      8.50569      3.58206     10.43466         0.494878      0.079633     -0.038905
O      8.50569     17.39634     10.54374         0.658887     -0.253277     -0.061948
O     12.47271      3.58206     10.54374        -0.488276      0.163035      0.040096
O     12.47271     17.39634     10.43466        -0.524662     -0.039392     -0.030613
O     11.90042     11.90042     19.56718        -0.304894     -0.311775      0.263230
O     19.56718     19.56718     19.56718         0.287328      0.271688      0.321647
O     19.56718     11.90042     11.90042         0.280444     -0.330189     -0.243289
O     11.90042     19.56718     11.90042        -0.227847      0.291920     -0.240090
O      9.45224      1.03696      9.45224        -0.074456      0.050418     -0.065861
O      1.03696      9.45224      9.45224         0.057128     -0.145088     -0.056053
O      1.03696      1.03696      1.03696         0.043446      0.032884      0.188785
O      9.45224      9.45224      1.03696        -0.039538     -0.091423      0.123819
Zr     10.48920      2.52580     10.48920        -0.007222     -0.075236     -0.022683
Zr     10.48920     18.45260     10.48920         0.059810      0.305289     -0.070365
Zr     10.48920     10.48920      2.52580        -0.100993      0.008285     -0.375397
Zr     10.48920     10.48920     18.45260        -0.140585     -0.165794      0.327373
Zr      2.52580     10.48920     10.48920        -0.348081      0.316417     -0.470868
Zr     18.45260     10.48920     10.48920         0.235461      0.039588     -0.264503
Pd      9.04778     10.27593     13.34676        -0.024312     -0.021857     -0.011694
Pd     10.57844      9.72663     10.99995         0.009664     -0.003982     -0.063379
Pd     13.77210      8.55290     12.68565        -0.008120      0.011836      0.001404
Pd     11.00109     11.08614     15.04368         0.004307     -0.031244     -0.036484
Pd     12.86988     11.20726     13.05288         0.020146      0.004960     -0.006416
Pd     14.97443     10.93095     11.34588        -0.004486      0.019309     -0.018559
Pd      6.67001      7.43103     12.33429        -0.014062      0.021213      0.014147
Pd      9.21231      7.26710     10.15119         0.019238      0.017135     -0.034219
Pd      9.27827      7.63209     12.81504        -0.005883     -0.025052     -0.019503
Pd     11.70091      7.30165     11.47204         0.005838     -0.010513     -0.009434
Pd     11.36643      8.00174      8.86185         0.047991     -0.011310     -0.006361
Pd      7.26001     11.84159     11.96790        -0.002405      0.008377     -0.011981
Pd      8.90565     14.68118      9.34125         0.046908      0.007659      0.012299
Pd      8.41605     12.67211     14.32956        -0.002630     -0.013576     -0.010452
Pd     13.49664     14.07160      8.57249         0.091867      0.038937     -0.038662
Pd     10.96396     13.31983      8.51662         0.089809      0.050562      0.048484
Pd     14.07798     11.50454      8.92532         0.004093      0.042695     -0.010481
Pd      8.63446     14.11076     12.10368        -0.000331     -0.001314      0.000697
Pd     12.24345     13.75840     14.02856        -0.011949     -0.007256     -0.006140
Pd     11.17421     14.42105     11.14069         0.019957     -0.006111      0.059169
Pd     14.05704     13.55943     12.17010        -0.014356      0.021853     -0.009080
Pd     12.31129     12.12614     10.68705        -0.002835     -0.007381      0.014413
Pd     12.63878     12.30477      6.71792         0.039677      0.057759     -0.008849
Pd     13.63341      8.92943      7.91637         0.034148      0.008148     -0.007182
Pd      6.85993      8.46924      8.86356         0.012180      0.018158     -0.002592
Pd      5.52410      9.93428     11.27764         0.006550      0.034171     -0.053974
Pd      9.12173      9.77132      8.29666         0.051581     -0.038463     -0.008530
Pd      8.83781      7.25371      7.48979        -0.030699     -0.011868     -0.037244
Pd      9.52150     12.08169     10.43680         0.032339      0.013109      0.005479
Pd     11.51554     10.70380      8.58504         0.024391      0.012531     -0.050948
Pd     11.21707      9.26062      6.43480         0.042379     -0.030719     -0.010819
Pd      9.87369     11.57242      6.36453         0.043840     -0.034254      0.005300
Ir     11.36828      9.12532     13.37499        -0.005745      0.009598     -0.019638
Ir     13.06793      9.47242     10.39067         0.009336     -0.012209      0.002962
Ir     10.54072     12.36175     12.72034         0.004036     -0.001117      0.003826
Ir      7.13054     10.99307      9.51540         0.024295      0.010881     -0.004270
Ir      8.40202     12.46537      8.19425         0.009998      0.001853     -0.003395
Ir      8.06187      9.31678     11.12775         0.016140      0.001604      0.003097
