152
# total energy = -1060.02550748 eVH     10.35389      5.87395      7.64558        -0.265835      0.007081      1.142974
H     10.62451     15.10445      7.64558         0.050206     -0.090024      0.926272
H     10.62451      5.87395     13.33282        -0.241355      0.086030     -0.788355
H     10.35389     15.10445     13.33282         0.099158     -0.297883     -0.893807
H      7.64558     10.35389      5.87395         0.932524     -0.117022      0.183078
H      7.64558     10.62451     15.10445         0.335518     -0.042970     -0.077047
H     13.33282     10.62451      5.87395        -0.870361      0.210526      0.202963
H     13.33282     10.35389     15.10445        -0.277979     -0.011561     -0.068514
H      5.87395      7.64558     10.35389         0.088721      0.415265     -0.013808
H     15.10445      7.64558     10.62451         0.010623      0.509991     -0.032648
H      5.87395     13.33282     10.62451        -0.016844     -0.960737      0.077979
H     15.10445     13.33282     10.35389        -0.079892     -0.320503      0.004232
H      5.87395     10.35389      7.64558         0.273139      0.117568      0.415185
H     15.10445     10.62451      7.64558        -0.125803     -0.174792      0.653491
H      5.87395     10.62451     13.33282        -0.090156      0.459213     -0.617492
H     15.10445     10.35389     13.33282         0.261568     -0.647218     -0.815086
H     10.35389      7.64558      5.87395        -0.045038      0.481832      0.331529
H     10.62451      7.64558     15.10445         0.225288      0.755621     -0.043847
H     10.62451     13.33282      5.87395         0.123853     -0.565048      0.205677
H     10.35389     13.33282     15.10445         0.042869     -0.286699     -0.136010
H      7.64558      5.87395     10.35389         0.339643      0.094207      0.018122
H      7.64558     15.10445     10.62451         0.371608     -0.114223      0.158239
H     13.33282      5.87395     10.62451        -0.317480      0.127611     -0.035767
H     13.33282     15.10445     10.35389        -0.652950     -0.132069      0.145555
H     12.45634     12.45634     19.01126         0.254910      0.270790     -0.229402
H     19.01126     19.01126     19.01126        -0.245833     -0.268498     -0.245322
H     19.01126     12.45634     12.45634        -0.251667      0.269272      0.235164
H     12.45634     19.01126     12.45634         0.290524     -0.235967      0.234138
C     10.35284      5.61067      6.59456         0.396703     -0.426485     -1.458084
C     10.62556     15.36773      6.59456        -0.158770      0.573578     -0.629803
C     10.62556      5.61067     14.38384         0.386802     -0.348627      0.844173
C     10.35284     15.36773     14.38384        -0.233619      0.224244      1.107004
C      6.59456     10.35284      5.61067        -1.376868      0.019487     -0.242516
C      6.59456     10.62556     15.36773        -0.650937      0.059481      0.381404
C     14.38384     10.62556      5.61067         1.308088     -0.173137     -0.622327
C     14.38384     10.35284     15.36773         0.374541     -0.122563      0.358755
C      5.61067      6.59456     10.35284        -0.293837     -0.628742     -0.014130
C     15.36773      6.59456     10.62556         0.420190     -0.996425      0.030885
C      5.61067     14.38384     10.62556        -0.122718      1.157690     -0.180604
C     15.36773     14.38384     10.35284         0.458446      0.647131     -0.025740
C      5.61067     10.35284      6.59456        -0.366611     -0.100923     -0.715331
C     15.36773     10.62556      6.59456         0.417788      0.121116     -0.746422
C      5.61067     10.62556     14.38384        -0.384063     -0.174182      1.227238
C     15.36773     10.35284     14.38384         0.282822      0.191514      1.504131
C     10.35284      6.59456      5.61067        -0.050786     -0.713194     -0.624813
C     10.62556      6.59456     15.36773        -0.093657     -0.838712      0.347006
C     10.62556     14.38384      5.61067        -0.459730      0.414975     -0.699554
C     10.35284     14.38384     15.36773        -0.153236      0.591906      0.413635
C      6.59456      5.61067     10.35284        -0.503563     -0.338322      0.037136
C      6.59456     15.36773     10.62556        -0.394104      0.464505      0.051271
C     14.38384      5.61067     10.62556         0.448338     -0.385362      0.004374
C     14.38384     15.36773     10.35284         1.121604      0.503184     -0.071067
C     10.40319      3.19606      7.29314         0.001275      0.646116     -0.336957
C     10.35913      4.25547      6.23373         0.004506     -0.442899      0.290578
C      0.08601      7.29314      7.29314        -0.013376     -0.358152     -0.498313
C      0.13007      6.23373      6.23373        -0.078253      0.832839      0.061432
C      0.08601      3.19606      3.19606        -0.001961      0.673131      0.269617
C      0.13007      4.25547      4.25547         0.024009     -0.269630     -0.527932
C     10.40319      7.29314      3.19606        -0.067278     -1.156421      0.557515
C     10.35913      6.23373      4.25547        -0.038170      0.371878     -0.196591
C      7.29314     10.40319      3.19606        -1.083956     -0.058096      0.186172
C      6.23373     10.35913      4.25547         0.364070      0.082244     -0.538199
C      7.29314      0.08601      7.29314        -0.413770      0.034011     -0.557533
C      6.23373      0.13007      6.23373         0.178444      0.132296      0.130595
C      3.19606      0.08601      3.19606         0.697978      0.024458      0.164221
C      4.25547      0.13007      4.25547        -0.170261     -0.052770     -0.365482
C      3.19606     10.40319      7.29314         0.384731     -0.024845     -0.870755
C      4.25547     10.35913      6.23373        -0.161394     -0.083507      0.095934
C      3.19606      7.29314     10.40319         0.600260     -0.387681      0.001835
C      4.25547      6.23373     10.35913        -0.117254      0.181815      0.000108
C      7.29314      7.29314      0.08601        -0.404093     -0.325983     -0.015079
C      6.23373      6.23373      0.13007         0.197448      0.193117     -0.058662
C      3.19606      3.19606      0.08601         0.290337      0.479379     -0.023495
C      4.25547      4.25547      0.13007        -0.399391     -0.227263     -0.030929
C      7.29314      3.19606     10.40319        -0.281303      0.590059     -0.013075
C      6.23373      4.25547     10.35913         0.003440     -0.122795      0.021890
O     10.43466      3.58206      8.50569        -0.029739      0.101881      0.328453
O     10.54374     17.39634      8.50569         0.065809     -0.133412      0.592005
O     10.54374      3.58206     12.47271         0.027040      0.107453     -0.390311
O     10.43466     17.39634     12.47271         0.088780     -0.045662     -0.367941
O      8.50569     10.43466      3.58206         0.713207     -0.060530      0.013274
O      8.50569     10.54374     17.39634         0.455619      0.055148     -0.071553
O     12.47271     10.54374      3.58206        -0.652254      0.114038      0.204256
O     12.47271     10.43466     17.39634        -0.285939     -0.005114      0.014793
O      3.58206      8.50569     10.43466         0.044623      0.461886     -0.066042
O     17.39634      8.50569     10.54374        -0.061635      0.460537      0.055296
O      3.58206     12.47271     10.54374         0.113981     -0.583953      0.002739
O     17.39634     12.47271     10.43466        -0.168637     -0.738322     -0.060796
O      3.58206     10.43466      8.50569         0.217019     -0.062989      0.780270
O     17.39634     10.54374      8.50569        -0.114716      0.077340      0.592101
O      3.58206     10.54374     12.47271         0.000121     -0.001422     -0.269600
O     17.39634     10.43466     12.47271         0.042036     -0.013358     -0.213929
O     10.43466      8.50569      3.58206        -0.104559      0.574748     -0.115218
O     10.54374      8.50569     17.39634         0.065118      0.503242     -0.098331
O     10.54374     12.47271      3.58206         0.105001     -0.623585      0.134091
O     10.43466     12.47271     17.39634        -0.061246     -0.632467     -0.241970
O      8.50569      3.58206     10.43466         0.398318      0.028490     -0.032420
O      8.50569     17.39634     10.54374         0.627974     -0.152754      0.050161
O     12.47271      3.58206     10.54374        -0.508467      0.126641      0.037290
O     12.47271     17.39634     10.43466        -0.621701     -0.138346      0.036612
O     11.90042     11.90042     19.56718        -0.274357     -0.308339      0.236722
O     19.56718     19.56718     19.56718         0.301862      0.318828      0.299682
O     19.56718     11.90042     11.90042         0.285313     -0.324809     -0.230743
O     11.90042     19.56718     11.90042        -0.317699      0.230188     -0.201826
O      9.45224      1.03696      9.45224        -0.085082      0.083415     -0.066490
O      1.03696      9.45224      9.45224         0.099954     -0.116881     -0.044408
O      1.03696      1.03696      1.03696         0.082372      0.055150      0.099656
O      9.45224      9.45224      1.03696        -0.059977     -0.131292      0.131263
Zr     10.48920      2.52580     10.48920         0.032046     -0.087459      0.066937
Zr     10.48920     18.45260     10.48920        -0.169732      0.262416     -0.344779
Zr     10.48920     10.48920      2.52580         0.122088      0.355445     -0.354793
Zr     10.48920     10.48920     18.45260        -0.080119     -0.194102      0.173413
Zr      2.52580     10.48920     10.48920        -0.253408      0.124737      0.221228
Zr     18.45260     10.48920     10.48920         0.229989     -0.111375      0.006707
Pd      9.38817     14.22493      9.38978         0.001996      0.058010     -0.050894
Pd      8.63152     13.71136     12.98203        -0.006713      0.005011      0.007717
Pd     12.01815     14.41545      8.75445         0.019280      0.004447     -0.017922
Pd     12.78185     12.80237     10.61069        -0.014489     -0.005002      0.044108
Pd     12.16501      7.10116     12.60498        -0.023212      0.010814      0.018242
Pd     11.23724     14.80489     11.53005        -0.036991      0.035911     -0.028515
Pd     10.10924     12.46478     11.14662        -0.010897      0.044276     -0.025395
Pd     13.47731     12.13516      7.97332         0.004787     -0.000308      0.013669
Pd     11.47511     11.55232      6.11644         0.007281      0.006705     -0.006478
Pd      7.84458      8.58444      7.55334         0.018318     -0.035612     -0.009913
Pd      8.74444     11.72534      6.89865        -0.008627      0.007094     -0.009684
Pd     10.31560      9.45626      8.13504        -0.016404      0.011304      0.006246
Pd      8.50896     14.42565      6.87349         0.001352      0.009859     -0.032705
Pd     12.37660      9.03004      6.57680        -0.011132      0.008030      0.009381
Pd      9.74251      9.60581      5.55076         0.003252      0.001443      0.005735
Pd      6.88316      9.46274     12.19233        -0.017305     -0.004581     -0.001049
Pd     12.21014      6.67617      7.85163        -0.001133      0.014253      0.023754
Pd      5.96336     10.48507      9.73816        -0.012396     -0.025425     -0.009230
Pd      7.57276      7.10373     13.20262         0.000570      0.035713      0.070975
Ir     11.83010      9.69045     13.06117        -0.059622      0.022104      0.004521
Ir     13.59098      8.98197     11.43246        -0.007775      0.020917      0.002719
Ir      9.42700      8.81376     13.82584         0.000167      0.085218      0.053910
Ir     10.57601     10.91337     14.85751        -0.036409     -0.025339     -0.007173
Ir      7.31167     12.04440     11.37597        -0.077096      0.005549     -0.038423
Ir     14.70443     10.82071     10.06790        -0.035551      0.011391      0.048128
Ir     12.20528     10.46064      9.65091         0.023751      0.031160      0.019812
Ir      8.77776     11.05131     13.03678         0.093749     -0.089960      0.052489
Ir     10.15866      9.83490     11.24497        -0.018082      0.021120     -0.006725
Ir     13.79757     11.35458     12.38663        -0.048566      0.018180      0.009906
Ir     11.70150     12.29115     13.12079        -0.083515     -0.005498     -0.021740
Ir      8.54533     11.06238      9.40290        -0.010811      0.004062     -0.044747
Ir     11.59879      7.96237     10.05292         0.002820      0.010101      0.022239
Ir      7.22822     12.97262      8.69458         0.017911      0.031884      0.004072
Ir      9.51111      7.00110      9.07902         0.001050      0.001980      0.028507
Ir      8.08277      8.73765     10.11323        -0.010522     -0.004091     -0.011652
Ir     10.76769     12.08168      8.55051        -0.010105      0.015497     -0.027923
Ir      9.59021      7.39674     11.63516        -0.014513      0.056280      0.015522
Ir     13.70346      8.67249      8.79186        -0.001243      0.038859      0.021709
