35
# total energy = -286.26319949 eVC      6.62291     10.18371      7.54803        -0.017444      0.063264      0.003224
C      8.01150      9.80984      7.54235        -0.003527     -0.012207      0.002085
C      9.29734      5.59646      7.55670        -0.038560     -0.002238     -0.002523
C      1.50508      5.33354      7.55862         0.049636     -0.003597     -0.006172
C      4.17937      0.74660      7.57659         0.017013     -0.080145      0.000732
C      2.79069      1.12024      7.56815         0.009920     -0.015108      0.003269
C      0.70775      4.14693      7.55906        -0.061966      0.015946      0.001770
C      1.10971      2.76626      7.56090         0.013707      0.008190      0.002547
C      5.34948      1.56743      7.58254         0.007381      0.037623     -0.005872
C      5.45274      9.36253      7.55467         0.004253     -0.047594     -0.001887
C     10.09449      6.78296      7.54683         0.073865     -0.018072      0.003207
C      9.69264      8.16371      7.54168        -0.000112     -0.017743     -0.000304
C      0.75383      6.54537      7.55196        -0.077039      0.063656      0.000589
C      1.18313      7.92734      7.54643         0.055457     -0.150677      0.004763
C     10.04842      4.38444      7.55639         0.082602     -0.058665     -0.001626
C      9.61919      3.00241      7.56062        -0.061510      0.160596      0.001152
C      4.22610     10.08946      7.55028        -0.078896      0.074125     -0.000955
C      2.85262      9.63214      7.54515         0.169338     -0.056113      0.002750
C      6.57624      0.84075      7.57611         0.072739     -0.080453     -0.000058
C      7.94947      1.29800      7.56946        -0.166470      0.060828      0.004421
N      8.78323      0.21297      7.56551        -0.036053      0.108758      0.000273
N      0.08131      8.73902      7.54314         0.107623     -0.027201      0.002085
N      8.43323      8.55870      7.54316         0.002954      0.035778     -0.000545
N      2.36946      2.37073      7.56251        -0.037488      0.004710      0.004815
N      2.01883     10.71709      7.53865         0.032156     -0.108002      0.002826
N     10.72091      2.19081      7.55831        -0.106321      0.031664      0.001014
N      2.47608      8.33101      7.54737        -0.090630      0.088486      0.001324
N      8.32622      2.59909      7.56715         0.091550     -0.094216     -0.000496
O      5.26390      2.85525      7.59269        -0.003927      0.072657     -0.007225
O      5.53940      8.07439      7.56325        -0.005108     -0.051023     -0.003408
O      8.00798      5.65637      7.56584        -0.065924      0.001129     -0.001058
O      2.79472      5.27328      7.56426         0.050473      0.002931     -0.002278
Pd      6.82497      4.07086      7.57960        -0.025185      0.016051     -0.005080
Pd      3.97801      6.85900      7.56332         0.022213     -0.018927     -0.005920
Pd      0.02513     10.73167      7.53880         0.013280     -0.004411      0.002560
