26
# total energy = -208.94049730 eVC      8.64752      1.68277      0.00000        -0.049294      0.230449      0.000000
C      0.68890      7.65365     -0.00000         0.049294     -0.230449     -0.000000
C      7.65365      8.64752      0.00000        -0.230449     -0.049294      0.000000
C      1.68277      0.68890     -0.00000         0.230449      0.049294      0.000000
C      0.68890      1.68277      0.00000         0.049294      0.230449     -0.000000
C      8.64752      7.65365     -0.00000        -0.049294     -0.230449     -0.000000
C      1.68277      8.64752     -0.00000         0.230449     -0.049294      0.000000
C      7.65365      0.68890     -0.00000        -0.230449      0.049294     -0.000000
C      8.03346      2.98166     -0.00000         0.333591     -0.208672     -0.000000
C      1.30296      6.35476     -0.00000        -0.333591      0.208672      0.000000
C      6.35476      8.03346     -0.00000         0.208672      0.333591      0.000000
C      2.98166      1.30296     -0.00000        -0.208672     -0.333591     -0.000000
C      1.30296      2.98166      0.00000        -0.333591     -0.208672      0.000000
C      8.03346      6.35476      0.00000         0.333591      0.208672      0.000000
C      2.98166      8.03346     -0.00000        -0.208672      0.333591     -0.000000
C      6.35476      1.30296     -0.00000         0.208672     -0.333591     -0.000000
N      2.66389      6.67253      0.00000         0.246808     -0.246808     -0.000000
N      6.67253      2.66389     -0.00000        -0.246808      0.246808      0.000000
N      2.66389      2.66389     -0.00000         0.246808      0.246808      0.000000
N      6.67253      6.67253      0.00000        -0.246808     -0.246808     -0.000000
Ir     -0.00000      4.66821      0.00000         0.000000     -0.000000      0.000000
Ir      4.66821      0.00000      0.00000         0.000000     -0.000000      0.000000
Ir      4.66821      6.44441      0.00000         0.000000     -0.118488     -0.000000
Ir      4.66821      2.89201      0.00000         0.000000      0.118488      0.000000
Ir      2.89201      4.66821     -0.00000         0.118488     -0.000000      0.000000
Ir      6.44441      4.66821      0.00000        -0.118488     -0.000000      0.000000
