152
# total energy = -1058.75903671 eVH     10.35389      5.87395      7.64558        -0.086057      0.027624      1.025235
H     10.62451     15.10445      7.64558        -0.248457     -0.100323      1.045353
H     10.62451      5.87395     13.33282        -0.213760      0.066813     -0.827263
H     10.35389     15.10445     13.33282        -0.028834     -0.258918     -0.833516
H      7.64558     10.35389      5.87395         0.913123     -0.063822      0.244269
H      7.64558     10.62451     15.10445         0.314884     -0.062944     -0.096871
H     13.33282     10.62451      5.87395        -0.684046     -0.018361      0.205270
H     13.33282     10.35389     15.10445        -0.367124      0.029129     -0.074735
H      5.87395      7.64558     10.35389         0.102126      0.390954     -0.128288
H     15.10445      7.64558     10.62451         0.174259      0.741074     -0.283804
H      5.87395     13.33282     10.62451        -0.115259     -1.134628      0.071265
H     15.10445     13.33282     10.35389        -0.020558     -0.335737      0.003654
H      5.87395     10.35389      7.64558         0.309587      0.068915      0.430398
H     15.10445     10.62451      7.64558        -0.233787     -0.096331      0.605329
H      5.87395     10.62451     13.33282        -0.023850      0.678464     -0.373783
H     15.10445     10.35389     13.33282         0.066812     -0.180356     -0.594501
H     10.35389      7.64558      5.87395         0.055053      0.585338      0.366762
H     10.62451      7.64558     15.10445         0.250744      0.924973     -0.010811
H     10.62451     13.33282      5.87395         0.067770     -0.465531      0.196493
H     10.35389     13.33282     15.10445         0.096011     -0.439547     -0.098580
H      7.64558      5.87395     10.35389         0.373044      0.091442     -0.107860
H      7.64558     15.10445     10.62451         0.383783     -0.034822      0.229432
H     13.33282      5.87395     10.62451        -0.298521      0.065714     -0.004946
H     13.33282     15.10445     10.35389        -0.667647     -0.052885      0.116620
H     12.45634     12.45634     19.01126         0.252240      0.263274     -0.232444
H     19.01126     19.01126     19.01126        -0.238262     -0.279550     -0.244343
H     19.01126     12.45634     12.45634        -0.254269      0.263523      0.242357
H     12.45634     19.01126     12.45634         0.275866     -0.237723      0.242063
C     10.35284      5.61067      6.59456         0.323488     -0.285152     -1.327525
C     10.62556     15.36773      6.59456         0.011659      0.534447     -0.903265
C     10.62556      5.61067     14.38384         0.448334     -0.535562      0.902761
C     10.35284     15.36773     14.38384        -0.135808      0.222587      1.101986
C      6.59456     10.35284      5.61067        -1.438870      0.086178     -0.296844
C      6.59456     10.62556     15.36773        -0.594105      0.053359      0.271805
C     14.38384     10.62556      5.61067         0.918292     -0.029854     -0.464581
C     14.38384     10.35284     15.36773         0.598558     -0.058544      0.237776
C      5.61067      6.59456     10.35284        -0.321926     -0.487533      0.048284
C     15.36773      6.59456     10.62556         0.263554     -1.372817      0.116627
C      5.61067     14.38384     10.62556         0.013177      1.278347     -0.195292
C     15.36773     14.38384     10.35284         0.538863      0.645067     -0.018295
C      5.61067     10.35284      6.59456        -0.395530     -0.196984     -1.019698
C     15.36773     10.62556      6.59456         0.401362      0.035664     -0.967098
C      5.61067     10.62556     14.38384        -0.541597     -0.204543      1.396156
C     15.36773     10.35284     14.38384         0.395687     -0.010445      1.310557
C     10.35284      6.59456      5.61067        -0.060487     -0.942126     -0.661110
C     10.62556      6.59456     15.36773        -0.197573     -0.910471      0.403491
C     10.62556     14.38384      5.61067        -0.307436      0.461717     -0.672752
C     10.35284     14.38384     15.36773        -0.083972      0.872758      0.410597
C      6.59456      5.61067     10.35284        -0.341993     -0.265171      0.144711
C      6.59456     15.36773     10.62556        -0.637269      0.643702      0.024672
C     14.38384      5.61067     10.62556         0.464062     -0.545974     -0.020948
C     14.38384     15.36773     10.35284         1.218934      0.669633     -0.067212
C     10.40319      3.19606      7.29314        -0.006207      0.512915     -0.340104
C     10.35913      4.25547      6.23373        -0.041562     -0.450064      0.357917
C      0.08601      7.29314      7.29314        -0.035550     -0.226327     -0.498589
C      0.13007      6.23373      6.23373        -0.112486      0.830254      0.074738
C      0.08601      3.19606      3.19606        -0.004171      0.657385      0.297048
C      0.13007      4.25547      4.25547        -0.008106     -0.348210     -0.371622
C     10.40319      7.29314      3.19606        -0.060746     -0.855019      0.522255
C     10.35913      6.23373      4.25547        -0.051412      0.374970     -0.140415
C      7.29314     10.40319      3.19606        -0.927895     -0.048471      0.109130
C      6.23373     10.35913      4.25547         0.225289      0.090118     -0.340285
C      7.29314      0.08601      7.29314        -0.345790      0.039249     -0.902868
C      6.23373      0.13007      6.23373         0.216588      0.107707      0.174811
C      3.19606      0.08601      3.19606         0.562829      0.007701      0.349185
C      4.25547      0.13007      4.25547        -0.169806     -0.005112     -0.222476
C      3.19606     10.40319      7.29314         0.272042     -0.021384     -0.872053
C      4.25547     10.35913      6.23373        -0.197253     -0.083459      0.143586
C      3.19606      7.29314     10.40319         0.626752     -0.411665     -0.005298
C      4.25547      6.23373     10.35913        -0.222236      0.163971      0.035746
C      7.29314      7.29314      0.08601        -0.369567     -0.405127     -0.019009
C      6.23373      6.23373      0.13007         0.348427      0.322989      0.002246
C      3.19606      3.19606      0.08601         0.274227      0.466749     -0.022480
C      4.25547      4.25547      0.13007        -0.519237     -0.220466     -0.055236
C      7.29314      3.19606     10.40319        -0.279501      0.637132     -0.015823
C      6.23373      4.25547     10.35913        -0.021370     -0.247423      0.055433
O     10.43466      3.58206      8.50569        -0.025962      0.153125      0.370190
O     10.54374     17.39634      8.50569         0.108755     -0.157586      0.617162
O     10.54374      3.58206     12.47271         0.026227      0.102713     -0.388075
O     10.43466     17.39634     12.47271         0.102971     -0.118762     -0.405213
O      8.50569     10.43466      3.58206         0.756484     -0.106034      0.128454
O      8.50569     10.54374     17.39634         0.301670      0.046722      0.006536
O     12.47271     10.54374      3.58206        -0.636541      0.092271      0.186592
O     12.47271     10.43466     17.39634        -0.267410      0.000888      0.014850
O      3.58206      8.50569     10.43466         0.066424      0.457763     -0.020596
O     17.39634      8.50569     10.54374        -0.053223      0.420552      0.061379
O      3.58206     12.47271     10.54374         0.101955     -0.546868      0.028675
O     17.39634     12.47271     10.43466        -0.183276     -0.726148     -0.068850
O      3.58206     10.43466      8.50569         0.250786     -0.042740      0.828500
O     17.39634     10.54374      8.50569        -0.271732      0.091193      0.789754
O      3.58206     10.54374     12.47271         0.037559     -0.043563     -0.345525
O     17.39634     10.43466     12.47271         0.057400     -0.012420     -0.184235
O     10.43466      8.50569      3.58206        -0.150948      0.582186      0.051554
O     10.54374      8.50569     17.39634         0.044246      0.425241     -0.110183
O     10.54374     12.47271      3.58206         0.093598     -0.676984      0.154444
O     10.43466     12.47271     17.39634        -0.044122     -0.593852     -0.200999
O      8.50569      3.58206     10.43466         0.378430      0.026965     -0.031834
O      8.50569     17.39634     10.54374         0.634560     -0.143122      0.052302
O     12.47271      3.58206     10.54374        -0.521193      0.140469      0.025113
O     12.47271     17.39634     10.43466        -0.630573     -0.162430      0.002379
O     11.90042     11.90042     19.56718        -0.277130     -0.317687      0.252736
O     19.56718     19.56718     19.56718         0.288423      0.325301      0.283701
O     19.56718     11.90042     11.90042         0.298517     -0.321236     -0.239389
O     11.90042     19.56718     11.90042        -0.303312      0.240473     -0.215967
O      9.45224      1.03696      9.45224        -0.061096      0.077992     -0.102694
O      1.03696      9.45224      9.45224         0.090037     -0.100013     -0.041940
O      1.03696      1.03696      1.03696         0.068296      0.013476      0.119489
O      9.45224      9.45224      1.03696        -0.004245     -0.118833      0.155531
Zr     10.48920      2.52580     10.48920         0.034144     -0.045420      0.042652
Zr     10.48920     18.45260     10.48920        -0.211141      0.257765     -0.285052
Zr     10.48920     10.48920      2.52580         0.053081      0.258596     -0.370867
Zr     10.48920     10.48920     18.45260        -0.014908     -0.151123      0.126833
Zr      2.52580     10.48920     10.48920        -0.218019      0.152516      0.149528
Zr     18.45260     10.48920     10.48920         0.112530     -0.111550      0.183266
Pd      9.30403     14.11022      9.83429         0.050773      0.022307     -0.296763
Pd      8.75601     13.45260     13.05920        -0.037650      0.150398      0.096146
Pd     11.92196     14.56088      8.76251        -0.108691     -0.058175      0.044521
Pd     12.86107     12.90919     10.44396         0.010572     -0.129384      0.123053
Pd     12.30039      7.12750     12.84527        -0.068426      0.113412     -0.100750
Pd     11.38946     14.76318     11.67879        -0.109037     -0.179307      0.023722
Pd     10.37725     12.25289     11.31344        -0.289872      0.113349     -0.060309
Pd     13.39325     12.21509      7.89892         0.002618     -0.064253      0.015079
Pd     11.28641     11.47519      6.18220         0.104858      0.105121     -0.014777
Pd      7.69328      8.46799      7.82891         0.026091      0.070713     -0.247209
Pd      8.64531     11.70394      7.07221         0.044846      0.071492     -0.091751
Pd     10.14703      9.52331      8.37666         0.260275     -0.018418      0.038043
Pd      8.61301     14.42496      7.26934        -0.046089     -0.058129     -0.191519
Pd     12.10210      9.03136      6.78012         0.266624      0.002001     -0.068968
Pd      9.52226      9.47010      5.77336         0.157424     -0.023820     -0.036491
Pd      6.51376      9.47539     12.05346         0.435641      0.173098      0.024923
Pd     12.39020      6.62529      7.91163        -0.230658     -0.020425      0.004489
Pd      6.01196     10.56158      9.59702        -0.040338     -0.052177     -0.004181
Pd      7.53190      7.11990     12.68619        -0.140365      0.001488      0.140642
Ir     11.98705      9.74010     13.13994        -0.154727     -0.029194     -0.185782
Ir     13.80888      8.82477     11.53309        -0.312529     -0.094264     -0.080284
Ir      9.50285      8.64433     13.69215         0.094736      0.033056      0.134261
Ir     10.41834     11.10015     14.57982         0.205273     -0.167050      0.318249
Ir      7.19661     12.08512     11.47348         0.190353      0.009714     -0.216353
Ir     14.92097     10.68577      9.89719        -0.110886      0.153069     -0.036180
Ir     12.26386     10.48180      9.63015         0.097178      0.053044      0.212219
Ir      8.68523     10.80929     12.89630        -0.187167      0.231953      0.200899
Ir     10.35157      9.71715     11.30792         0.165430     -0.306178     -0.022666
Ir     13.77891     11.23641     12.03787         0.119917      0.072305      0.132426
Ir     11.97973     12.42707     13.14946         0.123313     -0.080141     -0.040471
Ir      8.57440     11.17786      9.62950        -0.231065      0.019955     -0.116158
Ir     11.85971      7.95715     10.12177        -0.931500     -0.290064      0.106140
Ir      7.10135     12.97419      8.78577        -0.015610     -0.049857      0.111771
Ir      9.58551      7.00829      9.09424         0.184405      0.260089      0.479205
Ir      8.18813      8.75701     10.32094        -0.045948     -0.579331     -0.377342
Ir     10.73904     12.17568      8.62292         0.196439     -0.145526     -0.088768
Ir      9.86875      7.20835     11.60509         0.374613      0.275812     -0.694798
Ir     13.78486      8.70520      8.72057         0.070381      0.061028     -0.037867
