35
# total energy = -258.81369169 eVC      4.74219      8.87534      7.49840         0.004256     -0.005153     -0.000000
C      7.04681      2.91366      7.49840        -0.004256      0.005153      0.000000
C      2.91366      4.74219      7.49840         0.005153      0.004256     -0.000000
C      8.87534      7.04681      7.49840        -0.005153     -0.004256      0.000000
C      7.04681      8.87534      7.49840        -0.004256     -0.005153      0.000000
C      4.74219      2.91366      7.49840         0.004256      0.005153     -0.000000
C      8.87534      4.74219      7.49840        -0.005153      0.004256     -0.000000
C      2.91366      7.04681      7.49840         0.005153     -0.004256     -0.000000
C      8.32303      8.32303      7.49840         0.000512      0.000512     -0.000000
C      3.46597      3.46597      7.49840        -0.000512     -0.000512      0.000000
C      3.46597      8.32303      7.49840        -0.000512      0.000512     -0.000000
C      8.32303      3.46597      7.49840         0.000512     -0.000512      0.000000
C     11.05514      0.73386      7.49840         0.005286     -0.005286      0.000000
C      0.73386     11.05514      7.49840        -0.005286      0.005286     -0.000000
C     11.05514     11.05514      7.49840         0.005286      0.005286      0.000000
C      0.73386      0.73386      7.49840        -0.005286     -0.005286      0.000000
N      5.89450      8.13903      7.49840         0.000000      0.012922      0.000000
N      5.89450      3.64997      7.49840        -0.000000     -0.012922      0.000000
N      3.64997      5.89450      7.49840        -0.012922     -0.000000      0.000000
N      8.13903      5.89450      7.49840         0.012922      0.000000      0.000000
O      4.65610     10.22642      7.49840        -0.004223      0.008687      0.000000
O      7.13290      1.56258      7.49840         0.004223     -0.008687      0.000000
O      1.56258      4.65610      7.49840        -0.008687     -0.004223      0.000000
O     10.22642      7.13290      7.49840         0.008687      0.004223      0.000000
O      7.13290     10.22642      7.49840         0.004223      0.008687     -0.000000
O      4.65610      1.56258      7.49840        -0.004223     -0.008687     -0.000000
O     10.22642      4.65610      7.49840         0.008687     -0.004223      0.000000
O      1.56258      7.13290      7.49840        -0.008687      0.004223     -0.000000
Ir      9.72937      2.05963      7.49840        -0.011475      0.011475      0.000000
Ir      2.05963      9.72937      7.49840         0.011475     -0.011475     -0.000000
Ir      9.72937      9.72937      7.49840        -0.011475     -0.011475     -0.000000
Ir      2.05963      2.05963      7.49840         0.011475      0.011475     -0.000000
Ir      5.89450      5.89450      7.49840         0.000000      0.000000      0.000000
Ir      5.89450     -0.00000      7.49840        -0.000000     -0.000000      0.000000
Ir      0.00000      5.89450      7.49840         0.000000     -0.000000      0.000000
