9
# total energy = -63.82820498 eVH      2.47011      2.86698      0.00000         0.433578     -0.044820     -0.000000
H      0.10039      6.58791      0.00000        -0.433578      0.044820      0.000000
C      1.25814      8.06702      0.00000        -0.099199      0.098492     -0.000000
C      1.31236      1.38787     -0.00000         0.099199     -0.098492      0.000000
C     -0.00481      8.82699     -0.00000         0.146280     -0.045434      0.000000
C      0.00481      0.69809      0.00000        -0.146280      0.045434     -0.000000
N      1.49436      2.71160     -0.00000         0.196224     -0.252448     -0.000000
N      1.07614      6.74329      0.00000        -0.196224      0.252448     -0.000000
Ir      1.28525      4.72744      0.00000         0.000000      0.000000     -0.000000
