152
# total energy = -1089.06698250 eVH     10.35389      5.87395      7.64558         1.042838     -1.954968      1.188277
H     10.62451     15.10445      7.64558        -0.334988      1.031858      1.798519
H     10.62451      5.87395     13.33282         1.145262     -1.585729     -2.393127
H     10.35389     15.10445     13.33282        -0.745303      1.115658     -2.020804
H      7.64558     10.35389      5.87395         0.397764     -0.218136     -0.005003
H      7.64558     10.62451     15.10445         0.685687     -0.334879      0.119120
H     13.33282     10.62451      5.87395        -0.510476      0.023290      0.105799
H     13.33282     10.35389     15.10445        -0.628842      0.253677      0.047545
H      5.87395      7.64558     10.35389        -0.442739      1.067879      0.307897
H     15.10445      7.64558     10.62451         0.103613      0.850476     -0.020986
H      5.87395     13.33282     10.62451         0.038242     -0.521334      0.004687
H     15.10445     13.33282     10.35389         0.135358     -0.947278      0.117742
H      5.87395     10.35389      7.64558         0.008281      0.004358      0.669574
H     15.10445     10.62451      7.64558         0.026465      0.029676      0.317625
H      5.87395     10.62451     13.33282        -0.421324      0.687310     -0.466168
H     15.10445     10.35389     13.33282         0.628339     -0.392222      0.403046
H     10.35389      7.64558      5.87395        -0.610087      0.207110     -0.600015
H     10.62451      7.64558     15.10445         0.229879      0.694206      0.690813
H     10.62451     13.33282      5.87395        -0.182195     -1.090725     -0.278174
H     10.35389     13.33282     15.10445        -0.265257     -1.205690      0.415922
H      7.64558      5.87395     10.35389         1.116352     -0.649742      0.397230
H      7.64558     15.10445     10.62451         0.914187     -0.008212     -0.085954
H     13.33282      5.87395     10.62451        -0.991152     -0.176053      0.301270
H     13.33282     15.10445     10.35389        -0.555952      0.138352      0.064726
H     12.45634     12.45634     19.01126         0.262975      0.249152     -0.245228
H     19.01126     19.01126     19.01126        -0.258435     -0.257883     -0.238146
H     19.01126     12.45634     12.45634        -0.255135      0.262575      0.237216
H     12.45634     19.01126     12.45634         0.254110     -0.264593      0.234860
C     10.35284      5.61067      6.59456        -0.470100     -0.167157     -2.284456
C     10.62556     15.36773      6.59456         0.200910     -0.088817     -2.065175
C     10.62556      5.61067     14.38384         0.004173     -0.919296      2.710912
C     10.35284     15.36773     14.38384         0.153589      0.260871      2.116595
C      6.59456     10.35284      5.61067        -0.559874     -0.055685     -0.368965
C      6.59456     10.62556     15.36773        -0.944692      0.052071      0.446255
C     14.38384     10.62556      5.61067         0.660826      0.026790     -0.172628
C     14.38384     10.35284     15.36773         0.847389     -0.102679      0.345878
C      5.61067      6.59456     10.35284        -0.822568     -0.856409      0.371357
C     15.36773      6.59456     10.62556         0.456675     -1.279832      0.002165
C      5.61067     14.38384     10.62556        -0.459976      0.908613      0.028963
C     15.36773     14.38384     10.35284         0.420720      0.805086      0.103261
C      5.61067     10.35284      6.59456        -0.608986      0.070774     -1.736223
C     15.36773     10.62556      6.59456         0.734949      0.023939     -1.848911
C      5.61067     10.62556     14.38384        -0.754039     -0.041790      2.182979
C     15.36773     10.35284     14.38384         0.660693     -0.100254      1.782488
C     10.35284      6.59456      5.61067         0.136089     -1.831556     -0.904997
C     10.62556      6.59456     15.36773         0.066079     -2.714221      1.381494
C     10.62556     14.38384      5.61067         0.135103      1.697025     -0.739588
C     10.35284     14.38384     15.36773         0.109762      2.432149      1.026211
C      6.59456      5.61067     10.35284        -1.092682     -1.182047      0.299698
C      6.59456     15.36773     10.62556        -1.562227      0.310306      0.005475
C     14.38384      5.61067     10.62556         2.267239     -0.841652     -0.104630
C     14.38384     15.36773     10.35284         0.397414      0.743300      0.013368
C     10.40319      3.19606      7.29314        -0.009977      0.676957     -0.330740
C     10.35913      4.25547      6.23373         0.074841     -0.834135      0.744611
C      0.08601      7.29314      7.29314        -0.034976     -0.847834     -0.299620
C      0.13007      6.23373      6.23373        -0.188791      0.928037      0.897653
C      0.08601      3.19606      3.19606        -0.069972      0.490232      0.449012
C      0.13007      4.25547      4.25547         0.034030     -0.974593     -0.664541
C     10.40319      7.29314      3.19606         0.028064     -0.319237      0.256140
C     10.35913      6.23373      4.25547         0.057903      0.703090     -0.569666
C      7.29314     10.40319      3.19606        -0.395730      0.025250      0.556832
C      6.23373     10.35913      4.25547         0.338844      0.026209     -0.458205
C      7.29314      0.08601      7.29314        -0.435028      0.055342     -0.506073
C      6.23373      0.13007      6.23373         0.162459      0.132790      0.561445
C      3.19606      0.08601      3.19606         0.200149      0.014391      0.618331
C      4.25547      0.13007      4.25547        -0.463328      0.123698     -0.362273
C      3.19606     10.40319      7.29314         0.515219     -0.012817     -0.676686
C      4.25547     10.35913      6.23373        -0.414669      0.042115      0.617225
C      3.19606      7.29314     10.40319         0.370133     -0.594463     -0.019950
C      4.25547      6.23373     10.35913        -0.695818      0.433211     -0.144477
C      7.29314      7.29314      0.08601        -0.280372     -0.181167     -0.003983
C      6.23373      6.23373      0.13007         0.045318      0.511546     -0.032897
C      3.19606      3.19606      0.08601         0.491981      0.088989     -0.020795
C      4.25547      4.25547      0.13007        -0.096862     -0.416601     -0.040163
C      7.29314      3.19606     10.40319        -0.463278      0.544827     -0.011074
C      6.23373      4.25547     10.35913         0.627785     -0.703554     -0.104949
O     10.43466      3.58206      8.50569         0.009174      0.142042      0.285976
O     10.54374     17.39634      8.50569         0.018521     -0.130789      0.281067
O     10.54374      3.58206     12.47271         0.083306      0.193895     -0.403462
O     10.43466     17.39634     12.47271        -0.073481     -0.248534     -0.338285
O      8.50569     10.43466      3.58206         0.509777     -0.001988      0.152093
O      8.50569     10.54374     17.39634         0.447586      0.068397     -0.116955
O     12.47271     10.54374      3.58206        -0.361803      0.036365      0.102726
O     12.47271     10.43466     17.39634        -0.516887     -0.049381     -0.103713
O      3.58206      8.50569     10.43466         0.134251      0.595732     -0.056840
O     17.39634      8.50569     10.54374        -0.153227      0.443034      0.023978
O      3.58206     12.47271     10.54374         0.089579     -0.340844      0.047587
O     17.39634     12.47271     10.43466        -0.189440     -0.616227     -0.025441
O      3.58206     10.43466      8.50569         0.244790     -0.079641      0.616168
O     17.39634     10.54374      8.50569        -0.194465      0.004012      0.511473
O      3.58206     10.54374     12.47271         0.299475     -0.036906     -0.534981
O     17.39634     10.43466     12.47271        -0.171289     -0.025860     -0.547533
O     10.43466      8.50569      3.58206         0.004610      0.457798      0.228656
O     10.54374      8.50569     17.39634         0.111954      0.709755     -0.355090
O     10.54374     12.47271      3.58206         0.008624     -0.597740      0.261072
O     10.43466     12.47271     17.39634        -0.081514     -0.645882     -0.322681
O      8.50569      3.58206     10.43466         0.588454      0.179798     -0.041843
O      8.50569     17.39634     10.54374         0.427953     -0.190845      0.033737
O     12.47271      3.58206     10.54374        -0.512149      0.189954     -0.002800
O     12.47271     17.39634     10.43466        -0.553093     -0.156988     -0.024925
O     11.90042     11.90042     19.56718        -0.300860     -0.287149      0.240682
O     19.56718     19.56718     19.56718         0.298801      0.300522      0.226008
O     19.56718     11.90042     11.90042         0.308029     -0.312436     -0.280939
O     11.90042     19.56718     11.90042        -0.295257      0.320047     -0.272425
O      9.45224      1.03696      9.45224        -0.039695      0.045110     -0.121897
O      1.03696      9.45224      9.45224         0.040936     -0.026438     -0.123865
O      1.03696      1.03696      1.03696         0.069662      0.065067      0.061436
O      9.45224      9.45224      1.03696        -0.064996     -0.046290      0.065598
Zr     10.48920      2.52580     10.48920        -0.142351     -0.111571      0.081149
Zr     10.48920     18.45260     10.48920         0.101560      0.061470      0.043710
Zr     10.48920     10.48920      2.52580        -0.001695     -0.002703     -0.173601
Zr     10.48920     10.48920     18.45260         0.043443      0.009638      0.269450
Zr      2.52580     10.48920     10.48920        -0.123578     -0.034981     -0.000623
Zr     18.45260     10.48920     10.48920         0.173503      0.051338      0.084608
Pd     13.32211      8.55711      8.00303         0.540095     -0.223554     -0.034761
Pd      8.74542     13.99421     11.92482        -0.007266      0.206568      0.191248
Pd     12.19414     11.08953     10.64855        -0.539263     -0.029321     -0.130665
Pd     14.45429     10.72880     11.90374         0.261680      0.498374     -1.122922
Pd     11.04570      8.99640      6.66151         0.879563      1.161364     -0.488701
Pd      7.57384      7.44749      9.31456        -1.693137      0.191135     -1.008584
Ir      9.89088     11.53738     11.98151        -0.283991     -0.112117     -0.199352
Ir     13.30042      8.62359     10.69790        -0.421378      0.163071     -0.154899
Ir     12.16381     11.04416      7.95124        -0.403324      0.385242      0.469136
Ir      8.77342     13.85301      9.22969         0.308520     -0.528128      0.135004
Ir     11.02046      9.11149     12.03276         0.466549      0.741450     -0.255867
Ir      8.72544      9.41980      8.00323        -0.659060      2.457327      0.125224
Ir     13.29554     13.02632      9.23301        -0.173013     -0.512334     -0.483762
Ir     11.06082     13.40028      7.93152         0.727807     -0.311116      0.557968
Ir     14.40170     10.63190      9.33307        -0.644074     -0.018296      0.036246
Ir      9.87375      7.03546     10.74222         0.473533     -0.205795      0.473784
Ir      7.63550     11.84922      7.96837         0.262970      0.348267      0.191710
Ir      9.74201      7.31388      8.22274         1.078392     -2.658858     -1.495091
Ir     11.09587     13.50985     13.22137         1.346381     -0.569718     -0.506248
Ir     12.14154      6.73011     12.07608        -0.177130      1.275430      0.014989
Ir      9.88410     11.46379      9.28735        -0.287545     -0.248030      0.129359
Ir     13.28035      8.69796     13.36625         0.005509     -0.406067      0.042505
Ir     11.02095      9.02931      9.35925         1.262430      1.621529      1.100655
Ir     11.03994     13.54233     10.57501        -0.166669      0.001108     -0.257196
Ir     13.28098     13.12561     11.93942        -0.575837      0.202390      0.238396
Ir     12.15462     11.17289     13.34636        -0.249082      0.320526     -0.378243
Ir      9.88474     11.37168      6.65139        -0.129368     -0.237393      0.498394
Ir     12.09547      6.63676      9.43307        -1.025680      0.563816      0.016273
Ir      7.60140      7.54162     12.09736        -0.514656      0.156961      0.083374
Ir      7.59930     11.92811     10.61872         0.424385      0.121458      0.012954
Ir     11.03516      9.26625     14.66160         0.385332      1.164251     -0.516681
Ir      7.63842     11.99723     13.29030         0.061482     -0.053984     -0.204919
Ir      6.49212      9.89412      9.38438         0.210093      0.718075      0.775315
Ir      8.73145      9.53761     13.36468        -0.415731      1.398457     -0.196258
Ir      6.50502      9.90929     11.92744         0.274594     -0.526943     -1.544261
Ir      9.70580      7.30080     13.33902        -0.822693     -0.865732      0.217438
Ir      9.89312     11.54110     14.62795        -0.385204     -0.527528     -0.438582
Ir      8.72248      9.48794     10.68619         0.204720      0.337382      0.222794
