152
# total energy = -1060.14872317 eVH     10.35389      5.87395      7.64558        -0.321534      0.101141      1.090750
H     10.62451     15.10445      7.64558         0.074806     -0.069024      0.900415
H     10.62451      5.87395     13.33282        -0.267879      0.073034     -0.781540
H     10.35389     15.10445     13.33282         0.091771     -0.303597     -0.821681
H      7.64558     10.35389      5.87395         0.893855     -0.199087      0.207236
H      7.64558     10.62451     15.10445         0.316926     -0.029227     -0.060974
H     13.33282     10.62451      5.87395        -0.885978      0.220215      0.221347
H     13.33282     10.35389     15.10445        -0.282418     -0.028604     -0.061907
H      5.87395      7.64558     10.35389         0.093334      0.420465     -0.013917
H     15.10445      7.64558     10.62451        -0.041058      0.439253     -0.030844
H      5.87395     13.33282     10.62451        -0.020079     -0.969566      0.077466
H     15.10445     13.33282     10.35389        -0.080690     -0.326072      0.002025
H      5.87395     10.35389      7.64558         0.319032      0.062115      0.370299
H     15.10445     10.62451      7.64558        -0.120922     -0.160148      0.666175
H      5.87395     10.62451     13.33282        -0.062144      0.453427     -0.597038
H     15.10445     10.35389     13.33282         0.226748     -0.641110     -0.870014
H     10.35389      7.64558      5.87395        -0.021989      0.501160      0.345646
H     10.62451      7.64558     15.10445         0.337368      0.793385     -0.003157
H     10.62451     13.33282      5.87395         0.154257     -0.567072      0.200737
H     10.35389     13.33282     15.10445         0.034488     -0.289921     -0.168296
H      7.64558      5.87395     10.35389         0.370724      0.114002      0.063591
H      7.64558     15.10445     10.62451         0.387354     -0.127132      0.179617
H     13.33282      5.87395     10.62451        -0.306879      0.137646     -0.013875
H     13.33282     15.10445     10.35389        -0.658735     -0.104920      0.135709
H     12.45634     12.45634     19.01126         0.258876      0.272439     -0.226489
H     19.01126     19.01126     19.01126        -0.247829     -0.267412     -0.244432
H     19.01126     12.45634     12.45634        -0.249353      0.271737      0.237127
H     12.45634     19.01126     12.45634         0.289622     -0.235066      0.235403
C     10.35284      5.61067      6.59456         0.404861     -0.422208     -1.360384
C     10.62556     15.36773      6.59456        -0.166048      0.608631     -0.659353
C     10.62556      5.61067     14.38384         0.365212     -0.276896      0.773989
C     10.35284     15.36773     14.38384        -0.204528      0.213440      1.025150
C      6.59456     10.35284      5.61067        -1.394482      0.032035     -0.228770
C      6.59456     10.62556     15.36773        -0.670435      0.065105      0.357579
C     14.38384     10.62556      5.61067         1.305072     -0.186533     -0.628380
C     14.38384     10.35284     15.36773         0.317530     -0.130495      0.348054
C      5.61067      6.59456     10.35284        -0.275017     -0.673708     -0.029625
C     15.36773      6.59456     10.62556         0.408672     -0.860640      0.029294
C      5.61067     14.38384     10.62556        -0.147378      1.199693     -0.219794
C     15.36773     14.38384     10.35284         0.505729      0.704055     -0.036277
C      5.61067     10.35284      6.59456        -0.375462     -0.102045     -0.785101
C     15.36773     10.62556      6.59456         0.403846      0.107160     -0.682410
C      5.61067     10.62556     14.38384        -0.414575     -0.163691      1.219855
C     15.36773     10.35284     14.38384         0.237538      0.225383      1.418303
C     10.35284      6.59456      5.61067        -0.069054     -0.747022     -0.550423
C     10.62556      6.59456     15.36773        -0.144082     -0.984164      0.376160
C     10.62556     14.38384      5.61067        -0.492459      0.376967     -0.738758
C     10.35284     14.38384     15.36773        -0.173724      0.752681      0.498073
C      6.59456      5.61067     10.35284        -0.564038     -0.336072      0.003370
C      6.59456     15.36773     10.62556        -0.367696      0.449301      0.064376
C     14.38384      5.61067     10.62556         0.432666     -0.309858      0.008595
C     14.38384     15.36773     10.35284         1.131239      0.490540     -0.077193
C     10.40319      3.19606      7.29314        -0.006753      0.771832     -0.333169
C     10.35913      4.25547      6.23373         0.022453     -0.380938      0.288864
C      0.08601      7.29314      7.29314        -0.018634     -0.377236     -0.505845
C      0.13007      6.23373      6.23373        -0.047137      0.885041      0.093735
C      0.08601      3.19606      3.19606        -0.007501      0.693987      0.260682
C      0.13007      4.25547      4.25547         0.044524     -0.264587     -0.546024
C     10.40319      7.29314      3.19606        -0.064317     -1.114831      0.615441
C     10.35913      6.23373      4.25547        -0.046321      0.346344     -0.201106
C      7.29314     10.40319      3.19606        -1.093829     -0.054711      0.200691
C      6.23373     10.35913      4.25547         0.378873      0.101357     -0.519233
C      7.29314      0.08601      7.29314        -0.472847      0.029628     -0.448762
C      6.23373      0.13007      6.23373         0.180407      0.123246      0.122078
C      3.19606      0.08601      3.19606         0.699898      0.023578      0.173219
C      4.25547      0.13007      4.25547        -0.172324     -0.049673     -0.365469
C      3.19606     10.40319      7.29314         0.364350     -0.025905     -0.950825
C      4.25547     10.35913      6.23373        -0.128718     -0.055259      0.113804
C      3.19606      7.29314     10.40319         0.614476     -0.399517      0.002421
C      4.25547      6.23373     10.35913        -0.116364      0.177037      0.011901
C      7.29314      7.29314      0.08601        -0.428691     -0.296092     -0.015348
C      6.23373      6.23373      0.13007         0.151569      0.155338     -0.061955
C      3.19606      3.19606      0.08601         0.293383      0.491612     -0.025044
C      4.25547      4.25547      0.13007        -0.403173     -0.239481     -0.031326
C      7.29314      3.19606     10.40319        -0.284815      0.595399     -0.010038
C      6.23373      4.25547     10.35913         0.016437     -0.092626      0.014712
O     10.43466      3.58206      8.50569        -0.026518      0.076520      0.305472
O     10.54374     17.39634      8.50569         0.064631     -0.124578      0.594813
O     10.54374      3.58206     12.47271         0.029113      0.101787     -0.398365
O     10.43466     17.39634     12.47271         0.093930     -0.060575     -0.429532
O      8.50569     10.43466      3.58206         0.735152     -0.072088      0.015388
O      8.50569     10.54374     17.39634         0.526677      0.061221     -0.102504
O     12.47271     10.54374      3.58206        -0.655662      0.111947      0.211176
O     12.47271     10.43466     17.39634        -0.278245      0.004757      0.035983
O      3.58206      8.50569     10.43466         0.034029      0.444629     -0.062427
O     17.39634      8.50569     10.54374        -0.055205      0.448359      0.056326
O      3.58206     12.47271     10.54374         0.103383     -0.586929      0.004235
O     17.39634     12.47271     10.43466        -0.182427     -0.742803     -0.050092
O      3.58206     10.43466      8.50569         0.210491     -0.061239      0.808572
O     17.39634     10.54374      8.50569        -0.077422      0.072771      0.499399
O      3.58206     10.54374     12.47271        -0.003471     -0.005612     -0.262428
O     17.39634     10.43466     12.47271         0.034457     -0.009986     -0.233004
O     10.43466      8.50569      3.58206        -0.107563      0.533223     -0.100294
O     10.54374      8.50569     17.39634         0.058591      0.509546     -0.085947
O     10.54374     12.47271      3.58206         0.102608     -0.637705      0.129505
O     10.43466     12.47271     17.39634        -0.066444     -0.684599     -0.271737
O      8.50569      3.58206     10.43466         0.396407      0.022462     -0.045696
O      8.50569     17.39634     10.54374         0.640439     -0.153498      0.046231
O     12.47271      3.58206     10.54374        -0.517529      0.122012      0.028721
O     12.47271     17.39634     10.43466        -0.623880     -0.124435      0.040149
O     11.90042     11.90042     19.56718        -0.279043     -0.304389      0.223281
O     19.56718     19.56718     19.56718         0.309299      0.323042      0.298199
O     19.56718     11.90042     11.90042         0.283474     -0.325314     -0.235618
O     11.90042     19.56718     11.90042        -0.314501      0.229642     -0.201130
O      9.45224      1.03696      9.45224        -0.073675      0.086096     -0.080815
O      1.03696      9.45224      9.45224         0.099437     -0.107521     -0.061818
O      1.03696      1.03696      1.03696         0.079427      0.053806      0.098198
O      9.45224      9.45224      1.03696        -0.058557     -0.125839      0.136003
Zr     10.48920      2.52580     10.48920         0.043605     -0.092539      0.121766
Zr     10.48920     18.45260     10.48920        -0.183367      0.247726     -0.360014
Zr     10.48920     10.48920      2.52580         0.111050      0.359306     -0.344841
Zr     10.48920     10.48920     18.45260        -0.078720     -0.259465      0.231981
Zr      2.52580     10.48920     10.48920        -0.240005      0.132760      0.243562
Zr     18.45260     10.48920     10.48920         0.196642     -0.137764     -0.017118
Pd      9.36010     14.29742      9.31679         0.014214      0.025230     -0.017578
Pd      8.58936     13.63741     13.04434        -0.002029     -0.011621      0.020811
Pd     12.02257     14.40637      8.74263         0.006387      0.002879      0.004945
Pd     12.76221     12.87721     10.67352        -0.040809     -0.007304      0.026715
Pd     12.12000      7.19375     12.67538         0.002355     -0.004760     -0.000938
Pd     11.16305     14.89826     11.45618        -0.012430      0.018028     -0.012314
Pd     10.03827     12.55029     11.09133        -0.030204      0.022555     -0.024784
Pd     13.48055     12.15458      7.98142         0.008375      0.005479      0.006322
Pd     11.47893     11.54126      6.10983         0.005195      0.010901     -0.001141
Pd      7.94262      8.38194      7.52454         0.001581     -0.021605      0.001060
Pd      8.72137     11.75709      6.84635         0.005367     -0.002332     -0.006353
Pd     10.32423      9.45446      8.14891        -0.026734      0.004546      0.017508
Pd      8.49884     14.46346      6.79389        -0.008629      0.007557     -0.017328
Pd     12.39851      9.01614      6.56690        -0.005770      0.020370      0.027401
Pd      9.71750      9.60899      5.57293         0.003571      0.005119     -0.000473
Pd      6.80986      9.45002     12.13721         0.015721      0.000691     -0.001732
Pd     12.17718      6.74173      7.95195         0.007864     -0.000072      0.000752
Pd      5.91517     10.48420      9.68928        -0.005307     -0.008980     -0.002195
Pd      7.55053      7.24088     13.40836        -0.003873     -0.008978     -0.014456
Ir     11.74009      9.77787     13.06551        -0.034786      0.004611      0.027935
Ir     13.55435      9.05564     11.47532        -0.009306      0.017671     -0.010731
Ir      9.42776      8.86265     14.00947        -0.007212     -0.006020      0.009576
Ir     10.50415     11.02974     14.87532        -0.000812     -0.036424      0.028194
Ir      7.26868     12.01558     11.33793        -0.004850      0.002476      0.034543
Ir     14.65532     10.90828     10.14576        -0.041977      0.000874      0.042258
Ir     12.16535     10.56897      9.67660         0.024539     -0.006845     -0.013847
Ir      8.73876     10.99366     12.98850         0.029957      0.029905     -0.002351
Ir     10.10845      9.91730     11.17589        -0.006417      0.021024     -0.022201
Ir     13.74422     11.41967     12.48273        -0.019463     -0.006432      0.011623
Ir     11.60248     12.35992     13.08322        -0.068033     -0.014371      0.024848
Ir      8.49899     11.09999      9.33584         0.028282     -0.047769      0.002685
Ir     11.59203      8.02790     10.14229         0.032729      0.012711      0.010099
Ir      7.21777     13.03003      8.65560        -0.006708      0.031763     -0.001585
Ir      9.54788      6.96333      9.24009        -0.004563     -0.012755     -0.012253
Ir      8.05449      8.76527     10.05925        -0.001638      0.019268     -0.018133
Ir     10.72306     12.12381      8.50490        -0.001134     -0.009973      0.003937
Ir      9.51381      7.57301     11.75599         0.007007     -0.006784      0.010176
Ir     13.66790      8.79346      8.83992         0.008925      0.007372      0.034313
