152
# total energy = -1004.39793100 eVH     10.35389      5.87395      7.64558        -0.110557      0.145382      0.646837
H     10.62451     15.10445      7.64558        -0.196080     -0.162677      0.581173
H     10.62451      5.87395     13.33282         0.405330      0.034516     -0.874445
H     10.35389     15.10445     13.33282         0.058586     -0.179051     -0.513751
H      7.64558     10.35389      5.87395         0.363834      0.045884      0.148257
H      7.64558     10.62451     15.10445         0.856301      0.587321      0.006566
H     13.33282     10.62451      5.87395        -0.448230      0.026086      0.204823
H     13.33282     10.35389     15.10445        -0.808693     -0.231656      0.035126
H      5.87395      7.64558     10.35389         0.145045      1.740672      0.104087
H     15.10445      7.64558     10.62451        -0.075265      0.497253      0.244454
H      5.87395     13.33282     10.62451         0.205005     -0.578881     -0.012417
H     15.10445     13.33282     10.35389         0.218541     -1.353695     -0.448193
H      5.87395     10.35389      7.64558         0.137558      0.035357      0.508452
H     15.10445     10.62451      7.64558        -0.211459      0.922170      1.430115
H      5.87395     10.62451     13.33282        -0.052007      0.568269     -1.295006
H     15.10445     10.35389     13.33282         0.110734     -0.210406     -0.792761
H     10.35389      7.64558      5.87395         0.335538      1.279962      0.144203
H     10.62451      7.64558     15.10445         0.525735      0.772446     -0.090297
H     10.62451     13.33282      5.87395        -0.535862     -0.722899      0.299712
H     10.35389     13.33282     15.10445        -0.235800     -0.512146     -0.329816
H      7.64558      5.87395     10.35389         1.208381     -0.258663     -0.090839
H      7.64558     15.10445     10.62451         0.824733     -0.197582     -0.034452
H     13.33282      5.87395     10.62451        -0.595056      0.116776      0.658397
H     13.33282     15.10445     10.35389        -0.483092     -0.023195     -0.201972
H     12.45634     12.45634     19.01126         0.268963      0.251275     -0.231339
H     19.01126     19.01126     19.01126        -0.266409     -0.266835     -0.220620
H     19.01126     12.45634     12.45634        -0.277902      0.254472      0.228831
H     12.45634     19.01126     12.45634         0.245502     -0.281177      0.237791
C     10.35284      5.61067      6.59456        -0.142423     -0.791988     -0.434236
C     10.62556     15.36773      6.59456         0.108365      0.266462     -0.229335
C     10.62556      5.61067     14.38384        -0.046370     -0.481624      0.566666
C     10.35284     15.36773     14.38384         0.009813      0.240973      0.495609
C      6.59456     10.35284      5.61067        -0.488863      0.048538     -0.336885
C      6.59456     10.62556     15.36773        -0.936957      0.201231      0.709226
C     14.38384     10.62556      5.61067         0.720917      0.034368     -0.960407
C     14.38384     10.35284     15.36773         0.922123     -0.124845      0.400849
C      5.61067      6.59456     10.35284        -0.926335     -1.054474     -0.539778
C     15.36773      6.59456     10.62556         0.714486     -0.018138     -0.232662
C      5.61067     14.38384     10.62556        -0.245638      0.634148      0.013311
C     15.36773     14.38384     10.35284         0.299485      1.342458      0.048917
C      5.61067     10.35284      6.59456        -0.268679      0.011145     -0.679604
C     15.36773     10.62556      6.59456         0.461463     -0.388767     -1.021659
C      5.61067     10.62556     14.38384        -0.434322     -0.020951      0.972018
C     15.36773     10.35284     14.38384         0.475299     -0.068381      0.941395
C     10.35284      6.59456      5.61067        -0.118213     -0.936128     -0.378559
C     10.62556      6.59456     15.36773         0.094752     -0.723842      0.502365
C     10.62556     14.38384      5.61067         0.151652      1.053704     -0.365776
C     10.35284     14.38384     15.36773        -0.019322      1.022495      0.491386
C      6.59456      5.61067     10.35284        -0.594285     -1.266339      0.064160
C      6.59456     15.36773     10.62556        -0.961414      0.172604      0.110702
C     14.38384      5.61067     10.62556        -0.137530     -0.497731     -0.302565
C     14.38384     15.36773     10.35284         0.222180      0.611781     -0.074779
C     10.40319      3.19606      7.29314         0.004328      0.833858     -0.568336
C     10.35913      4.25547      6.23373         0.030251     -0.530081      0.132963
C      0.08601      7.29314      7.29314        -0.024939     -0.982872     -0.236072
C      0.13007      6.23373      6.23373        -0.073735      0.383607      0.327519
C      0.08601      3.19606      3.19606         0.052678      1.288680      0.148510
C      0.13007      4.25547      4.25547        -0.018718     -0.330037     -0.430611
C     10.40319      7.29314      3.19606        -0.010431     -0.523428      0.250962
C     10.35913      6.23373      4.25547        -0.023727      0.126161     -0.704936
C      7.29314     10.40319      3.19606        -0.337913      0.024118      0.419457
C      6.23373     10.35913      4.25547         0.223146      0.089350     -0.102502
C      7.29314      0.08601      7.29314        -1.036538     -0.088850     -0.399057
C      6.23373      0.13007      6.23373         0.655424     -0.189503      0.425254
C      3.19606      0.08601      3.19606         1.166336     -0.020102      0.349251
C      4.25547      0.13007      4.25547        -0.640737     -0.157936     -0.198232
C      3.19606     10.40319      7.29314         0.556467      0.030095     -0.304341
C      4.25547     10.35913      6.23373        -0.241063      0.100987      0.216926
C      3.19606      7.29314     10.40319         0.327472     -0.759627      0.039160
C      4.25547      6.23373     10.35913        -1.087418      0.097104      0.182043
C      7.29314      7.29314      0.08601        -0.475201     -0.502330     -0.015687
C      6.23373      6.23373      0.13007         0.489472      0.317333      0.015090
C      3.19606      3.19606      0.08601         0.551858      0.411619     -0.020643
C      4.25547      4.25547      0.13007        -0.031950     -0.744630     -0.102148
C      7.29314      3.19606     10.40319        -0.393490      0.507404      0.054852
C      6.23373      4.25547     10.35913         0.566610     -0.731201      0.204453
O     10.43466      3.58206      8.50569         0.011663      0.106320      0.526927
O     10.54374     17.39634      8.50569         0.053155     -0.028880      0.285527
O     10.54374      3.58206     12.47271        -0.003499     -0.075100     -0.150516
O     10.43466     17.39634     12.47271        -0.037253     -0.121941     -0.448775
O      8.50569     10.43466      3.58206         0.457408     -0.031293      0.083495
O      8.50569     10.54374     17.39634         0.832357     -0.063568     -0.165214
O     12.47271     10.54374      3.58206        -0.875468      0.130456      0.105646
O     12.47271     10.43466     17.39634        -0.607240      0.024229     -0.162343
O      3.58206      8.50569     10.43466         0.188694      0.803563     -0.019184
O     17.39634      8.50569     10.54374        -0.150288      0.676730      0.030783
O      3.58206     12.47271     10.54374         0.108986     -0.550334      0.053526
O     17.39634     12.47271     10.43466        -0.168522     -0.606375     -0.044309
O      3.58206     10.43466      8.50569         0.081827     -0.051207      0.429795
O     17.39634     10.54374      8.50569         0.035852      0.093520      0.383622
O      3.58206     10.54374     12.47271        -0.017513      0.027767     -0.282605
O     17.39634     10.43466     12.47271        -0.161863     -0.032005     -0.578860
O     10.43466      8.50569      3.58206        -0.028310      0.612933      0.169453
O     10.54374      8.50569     17.39634        -0.095927      0.802827     -0.218940
O     10.54374     12.47271      3.58206         0.109363     -0.956652      0.162330
O     10.43466     12.47271     17.39634         0.062018     -0.686979     -0.170528
O      8.50569      3.58206     10.43466         0.568708      0.140035     -0.046486
O      8.50569     17.39634     10.54374         0.556004     -0.149719      0.009558
O     12.47271      3.58206     10.54374        -0.699827      0.152673      0.018113
O     12.47271     17.39634     10.43466        -0.459494     -0.078044     -0.032734
O     11.90042     11.90042     19.56718        -0.321832     -0.285638      0.246130
O     19.56718     19.56718     19.56718         0.298070      0.313842      0.215578
O     19.56718     11.90042     11.90042         0.341561     -0.277089     -0.238587
O     11.90042     19.56718     11.90042        -0.268128      0.349977     -0.247503
O      9.45224      1.03696      9.45224        -0.028722      0.084042     -0.127516
O      1.03696      9.45224      9.45224         0.064141     -0.031989     -0.121644
O      1.03696      1.03696      1.03696         0.070540      0.095366      0.098094
O      9.45224      9.45224      1.03696        -0.047037     -0.036665      0.080360
Zr     10.48920      2.52580     10.48920        -0.068236     -0.203178      0.055141
Zr     10.48920     18.45260     10.48920         0.016951      0.065617      0.132074
Zr     10.48920     10.48920      2.52580        -0.313676     -0.362944     -0.368855
Zr     10.48920     10.48920     18.45260         0.135869      0.011050      0.394787
Zr      2.52580     10.48920     10.48920        -0.182191      0.047488     -0.050326
Zr     18.45260     10.48920     10.48920         0.171205     -0.009819      0.066719
Pd     12.96650      8.45622      9.86459        -0.022240      0.037489     -0.073655
Pd      6.38066      9.55097     10.32118        -0.009330      0.095591     -0.014590
Pd      6.97627     11.62387     11.78778        -0.025503      0.014091      0.029028
Pd     12.37014     13.44660      7.24701        -0.048996     -0.123930      0.030067
Pd     12.13769      7.89098      7.18010        -0.013598     -0.046815     -0.082376
Pd      8.49142      7.30951      6.86445        -0.039236     -0.016262      0.058351
Pd     11.43234     11.50029      5.62519        -0.053818     -0.059680     -0.028667
Pd     14.56287      8.84717      7.77590        -0.027779     -0.002554     -0.122739
Pd      9.86993     11.79652      7.95316         0.008356      0.019749     -0.003426
Pd      7.06045      7.13573     11.99887         0.025114      0.010083      0.036905
Pd      6.35150      7.51056      8.39256         0.049328      0.009123      0.060626
Pd      7.23535      9.18787     13.55428        -0.009276      0.042038      0.089549
Pd     11.39528      6.30259      9.24339         0.024296     -0.036412     -0.042679
Pd     10.01409      9.54006      6.51953        -0.035022     -0.010470      0.029901
Pd      9.06904     13.96764      9.37901        -0.011697      0.058835     -0.010804
Pd     10.89017      7.42906     11.49546        -0.020852     -0.057664     -0.012626
Pd     10.46367      9.07103      9.24048        -0.002404      0.028329     -0.004661
Pd      9.44854     11.55654     10.56430         0.039478     -0.032722      0.025887
Pd      8.82109      7.12320      9.57344         0.080569     -0.054271      0.017607
Pd      9.16593      7.41535     13.52018        -0.005136     -0.045882      0.004575
Pd      8.78601      9.20250     11.36933        -0.039725     -0.040650     -0.013563
Pd     12.25391     10.51923      7.94304         0.012728     -0.029132      0.016737
Pd      7.23891     11.93154      9.13117         0.022535      0.044256      0.011328
Pd      8.11180      9.59382      8.33209        -0.066484      0.046409     -0.031748
Pd     14.00667      6.37224      8.51296         0.014309      0.001036      0.002038
Pd     13.24366      8.45680     12.46420        -0.058160      0.037973     -0.063851
Pd      9.05581     11.42436     13.33224        -0.035350     -0.023811     -0.007407
Pd     13.96206     12.16202      8.91830        -0.030538     -0.020285      0.114051
Pd     13.18670     11.11651     13.14517        -0.004834      0.013669     -0.006208
Pd     14.60585     10.35721     10.82510        -0.025901      0.007468      0.043976
Pd     11.96858     10.73631     10.73151        -0.009697      0.014001      0.004794
Pd     11.55485     13.18860      9.71253        -0.030966      0.042834      0.042742
Pd     13.64552     13.03714     11.50778         0.013638      0.054401      0.018274
Pd     11.16125     12.78655     12.36421        -0.017329     -0.017542      0.007748
Pd     11.23992     11.58776     14.86180        -0.013184     -0.018784      0.024368
Pd     10.95514      9.64369     12.94123        -0.027285     -0.030112      0.025919
Pd      9.51311      9.55460     15.22226         0.016001     -0.007430      0.000306
Pd      8.70053     13.75962     12.04333         0.046902     -0.017369     -0.035655
