152
# total energy = -1060.14945526 eVH     10.35389      5.87395      7.64558        -0.320844      0.099731      1.090699
H     10.62451     15.10445      7.64558         0.072103     -0.067873      0.898625
H     10.62451      5.87395     13.33282        -0.269320      0.072246     -0.783647
H     10.35389     15.10445     13.33282         0.092385     -0.304211     -0.824494
H      7.64558     10.35389      5.87395         0.894194     -0.201509      0.206196
H      7.64558     10.62451     15.10445         0.317479     -0.029045     -0.061796
H     13.33282     10.62451      5.87395        -0.886210      0.219789      0.223191
H     13.33282     10.35389     15.10445        -0.281809     -0.029484     -0.060970
H      5.87395      7.64558     10.35389         0.092830      0.421903     -0.012272
H     15.10445      7.64558     10.62451        -0.040722      0.434685     -0.033730
H      5.87395     13.33282     10.62451        -0.016795     -0.969193      0.078332
H     15.10445     13.33282     10.35389        -0.079443     -0.327868      0.000973
H      5.87395     10.35389      7.64558         0.318037      0.061995      0.370811
H     15.10445     10.62451      7.64558        -0.119850     -0.159607      0.666878
H      5.87395     10.62451     13.33282        -0.063705      0.453396     -0.600112
H     15.10445     10.35389     13.33282         0.229083     -0.641771     -0.873463
H     10.35389      7.64558      5.87395        -0.023326      0.500562      0.345626
H     10.62451      7.64558     15.10445         0.334090      0.789725     -0.003724
H     10.62451     13.33282      5.87395         0.154514     -0.567968      0.200740
H     10.35389     13.33282     15.10445         0.031081     -0.288580     -0.167064
H      7.64558      5.87395     10.35389         0.370198      0.112943      0.064177
H      7.64558     15.10445     10.62451         0.388141     -0.128327      0.177415
H     13.33282      5.87395     10.62451        -0.306655      0.137382     -0.014257
H     13.33282     15.10445     10.35389        -0.660242     -0.103440      0.133919
H     12.45634     12.45634     19.01126         0.259047      0.272162     -0.226280
H     19.01126     19.01126     19.01126        -0.247715     -0.267675     -0.244491
H     19.01126     12.45634     12.45634        -0.249151      0.271446      0.236976
H     12.45634     19.01126     12.45634         0.289972     -0.235487      0.235223
C     10.35284      5.61067      6.59456         0.402804     -0.421558     -1.360771
C     10.62556     15.36773      6.59456        -0.167342      0.608082     -0.660482
C     10.62556      5.61067     14.38384         0.365320     -0.276752      0.776376
C     10.35284     15.36773     14.38384        -0.206434      0.215094      1.029417
C      6.59456     10.35284      5.61067        -1.398015      0.032437     -0.230336
C      6.59456     10.62556     15.36773        -0.667623      0.065092      0.358046
C     14.38384     10.62556      5.61067         1.305786     -0.186210     -0.629608
C     14.38384     10.35284     15.36773         0.318152     -0.131645      0.351083
C      5.61067      6.59456     10.35284        -0.274328     -0.675239     -0.030493
C     15.36773      6.59456     10.62556         0.409059     -0.858350      0.030329
C      5.61067     14.38384     10.62556        -0.147443      1.193895     -0.221079
C     15.36773     14.38384     10.35284         0.507505      0.706146     -0.036133
C      5.61067     10.35284      6.59456        -0.373243     -0.102521     -0.778564
C     15.36773     10.62556      6.59456         0.404758      0.105834     -0.684170
C      5.61067     10.62556     14.38384        -0.410607     -0.164579      1.220171
C     15.36773     10.35284     14.38384         0.234805      0.224316      1.419041
C     10.35284      6.59456      5.61067        -0.069315     -0.748696     -0.551085
C     10.62556      6.59456     15.36773        -0.142746     -0.981647      0.377115
C     10.62556     14.38384      5.61067        -0.493016      0.379038     -0.739703
C     10.35284     14.38384     15.36773        -0.174269      0.745021      0.494031
C      6.59456      5.61067     10.35284        -0.564759     -0.338355      0.002873
C      6.59456     15.36773     10.62556        -0.368502      0.448474      0.064295
C     14.38384      5.61067     10.62556         0.433588     -0.308631      0.008480
C     14.38384     15.36773     10.35284         1.132459      0.489906     -0.077012
C     10.40319      3.19606      7.29314        -0.007189      0.778019     -0.335201
C     10.35913      4.25547      6.23373         0.023633     -0.380370      0.289987
C      0.08601      7.29314      7.29314        -0.018505     -0.379069     -0.505927
C      0.13007      6.23373      6.23373        -0.046631      0.883289      0.093172
C      0.08601      3.19606      3.19606        -0.007154      0.695568      0.260686
C      0.13007      4.25547      4.25547         0.044898     -0.265612     -0.546724
C     10.40319      7.29314      3.19606        -0.064259     -1.117578      0.617399
C     10.35913      6.23373      4.25547        -0.046115      0.347248     -0.203287
C      7.29314     10.40319      3.19606        -1.095456     -0.055388      0.200174
C      6.23373     10.35913      4.25547         0.380155      0.100866     -0.521325
C      7.29314      0.08601      7.29314        -0.472881      0.029318     -0.446509
C      6.23373      0.13007      6.23373         0.179295      0.122414      0.121303
C      3.19606      0.08601      3.19606         0.703684      0.023702      0.170583
C      4.25547      0.13007      4.25547        -0.171686     -0.049439     -0.367415
C      3.19606     10.40319      7.29314         0.369626     -0.026556     -0.950539
C      4.25547     10.35913      6.23373        -0.129188     -0.055401      0.113504
C      3.19606      7.29314     10.40319         0.613607     -0.398555      0.002502
C      4.25547      6.23373     10.35913        -0.115596      0.177864      0.011944
C      7.29314      7.29314      0.08601        -0.428092     -0.295066     -0.015582
C      6.23373      6.23373      0.13007         0.149151      0.153784     -0.059837
C      3.19606      3.19606      0.08601         0.293415      0.491569     -0.025129
C      4.25547      4.25547      0.13007        -0.401406     -0.239377     -0.031290
C      7.29314      3.19606     10.40319        -0.283333      0.592816     -0.009856
C      6.23373      4.25547     10.35913         0.017438     -0.092187      0.015076
O     10.43466      3.58206      8.50569        -0.026370      0.074315      0.304343
O     10.54374     17.39634      8.50569         0.064375     -0.124480      0.594310
O     10.54374      3.58206     12.47271         0.029214      0.101445     -0.398010
O     10.43466     17.39634     12.47271         0.094303     -0.063033     -0.432386
O      8.50569     10.43466      3.58206         0.736905     -0.072595      0.015849
O      8.50569     10.54374     17.39634         0.529703      0.061472     -0.103078
O     12.47271     10.54374      3.58206        -0.657473      0.111630      0.210875
O     12.47271     10.43466     17.39634        -0.279927      0.004033      0.035787
O      3.58206      8.50569     10.43466         0.034397      0.444427     -0.063102
O     17.39634      8.50569     10.54374        -0.053998      0.446863      0.056363
O      3.58206     12.47271     10.54374         0.104261     -0.588422      0.004131
O     17.39634     12.47271     10.43466        -0.181278     -0.740082     -0.049710
O      3.58206     10.43466      8.50569         0.209015     -0.061380      0.807457
O     17.39634     10.54374      8.50569        -0.074591      0.071792      0.496180
O      3.58206     10.54374     12.47271        -0.004169     -0.004941     -0.261372
O     17.39634     10.43466     12.47271         0.035781     -0.010416     -0.231172
O     10.43466      8.50569      3.58206        -0.106896      0.532911     -0.101338
O     10.54374      8.50569     17.39634         0.059470      0.510849     -0.085522
O     10.54374     12.47271      3.58206         0.103104     -0.639085      0.129540
O     10.43466     12.47271     17.39634        -0.065838     -0.690767     -0.275713
O      8.50569      3.58206     10.43466         0.397075      0.023308     -0.045873
O      8.50569     17.39634     10.54374         0.640476     -0.154608      0.046584
O     12.47271      3.58206     10.54374        -0.516440      0.121091      0.028811
O     12.47271     17.39634     10.43466        -0.623953     -0.125432      0.040653
O     11.90042     11.90042     19.56718        -0.278368     -0.304299      0.223076
O     19.56718     19.56718     19.56718         0.309616      0.322384      0.298412
O     19.56718     11.90042     11.90042         0.283916     -0.325578     -0.235327
O     11.90042     19.56718     11.90042        -0.314407      0.229384     -0.201039
O      9.45224      1.03696      9.45224        -0.074462      0.086942     -0.079366
O      1.03696      9.45224      9.45224         0.100834     -0.108896     -0.061024
O      1.03696      1.03696      1.03696         0.079282      0.053685      0.098752
O      9.45224      9.45224      1.03696        -0.058353     -0.125692      0.136590
Zr     10.48920      2.52580     10.48920         0.043285     -0.093787      0.121155
Zr     10.48920     18.45260     10.48920        -0.181862      0.246892     -0.361239
Zr     10.48920     10.48920      2.52580         0.111875      0.358560     -0.347027
Zr     10.48920     10.48920     18.45260        -0.080386     -0.260819      0.232533
Zr      2.52580     10.48920     10.48920        -0.240308      0.130757      0.243833
Zr     18.45260     10.48920     10.48920         0.196963     -0.137352     -0.019933
Pd      9.35971     14.29493      9.31745        -0.001301      0.034122     -0.031674
Pd      8.58960     13.64375     13.03823         0.011770      0.008254      0.028579
Pd     12.02147     14.40511      8.74222         0.017474     -0.012421      0.019352
Pd     12.76365     12.88007     10.67746        -0.052418     -0.010591      0.057380
Pd     12.11866      7.19356     12.67667         0.003635     -0.011705     -0.002923
Pd     11.16037     14.89884     11.45570        -0.018030      0.026624     -0.019941
Pd     10.04187     12.54752     11.09090        -0.044824      0.045327     -0.047240
Pd     13.47816     12.15264      7.98210         0.008732      0.006141      0.010870
Pd     11.47878     11.54111      6.10885         0.008481      0.012401     -0.003442
Pd      7.94204      8.38379      7.52437        -0.001361     -0.031696     -0.006799
Pd      8.72066     11.75641      6.84452        -0.013346      0.006138      0.003178
Pd     10.32436      9.45215      8.14909        -0.016794      0.002787      0.012979
Pd      8.49826     14.46344      6.79386        -0.008714      0.003961     -0.016609
Pd     12.39722      9.01421      6.56212        -0.004908      0.026828      0.040540
Pd      9.71652      9.60899      5.57278         0.005894      0.006044      0.003660
Pd      6.81507      9.45297     12.14010         0.021945      0.010244      0.005915
Pd     12.17609      6.74338      7.95261         0.017548      0.008820      0.007312
Pd      5.91392     10.48488      9.69245        -0.002667     -0.005309      0.007841
Pd      7.55107      7.24202     13.41048        -0.002213     -0.009702     -0.014612
Ir     11.73750      9.77685     13.06604        -0.010629     -0.012890      0.006233
Ir     13.55187      9.05475     11.47349        -0.008383      0.008050      0.009544
Ir      9.42704      8.86562     14.00975        -0.014363     -0.006902      0.010453
Ir     10.50940     11.02248     14.88430        -0.017694     -0.041370      0.047755
Ir      7.27160     12.01594     11.33969        -0.005335     -0.004490     -0.006022
Ir     14.65094     10.90919     10.14670        -0.015539      0.019764      0.036587
Ir     12.16081     10.57293      9.68145        -0.004028      0.009122     -0.008505
Ir      8.74534     11.00096     12.99146         0.020368      0.016458     -0.002073
Ir     10.10506      9.91620     11.17610        -0.000293      0.001968     -0.022485
Ir     13.74127     11.41750     12.48546        -0.030365      0.002049      0.025816
Ir     11.59825     12.35614     13.08926        -0.054356     -0.006413      0.012695
Ir      8.49836     11.09563      9.33531        -0.015839      0.027486     -0.009200
Ir     11.59044      8.02782     10.14312         0.011305      0.001278      0.011870
Ir      7.21462     13.02958      8.65359         0.019232     -0.006794      0.015607
Ir      9.54683      6.96267      9.23912        -0.000522     -0.002587     -0.001481
Ir      8.05224      8.76349     10.05912         0.001696      0.003552      0.000816
Ir     10.71944     12.12316      8.50302         0.004607     -0.005614      0.002220
Ir      9.51244      7.57136     11.75604         0.001144     -0.000051      0.001610
Ir     13.66171      8.80129      8.83872         0.023951     -0.006897      0.008179
