152
# total energy = -1022.82351841 eVH     10.35389      5.87395      7.64558         0.478924      0.027850      0.910089
H     10.62451     15.10445      7.64558        -0.038369      0.054592      0.768347
H     10.62451      5.87395     13.33282         0.142740      0.114782     -0.603106
H     10.35389     15.10445     13.33282        -0.256075     -0.079217     -0.556583
H      7.64558     10.35389      5.87395         0.330877     -0.037648      0.189841
H      7.64558     10.62451     15.10445         0.615070     -0.189071     -0.146553
H     13.33282     10.62451      5.87395        -0.864566     -0.330602      0.164232
H     13.33282     10.35389     15.10445        -0.446714     -0.074541     -0.071845
H      5.87395      7.64558     10.35389         0.125022      1.129426     -0.151016
H     15.10445      7.64558     10.62451        -0.170859      0.401082     -0.086706
H      5.87395     13.33282     10.62451         0.142347     -0.404112     -0.072075
H     15.10445     13.33282     10.35389        -0.077744     -0.967358     -0.200109
H      5.87395     10.35389      7.64558         0.125135      0.034658      0.476985
H     15.10445     10.62451      7.64558         0.127686     -0.218331      0.799763
H      5.87395     10.62451     13.33282         0.274484     -0.023860     -0.392385
H     15.10445     10.35389     13.33282        -0.158360      0.018747     -0.610047
H     10.35389      7.64558      5.87395         0.067493      0.845662      0.113061
H     10.62451      7.64558     15.10445         0.021454      0.580810     -0.140501
H     10.62451     13.33282      5.87395         0.073578     -0.601681      0.172071
H     10.35389     13.33282     15.10445        -0.249667     -0.893417     -0.111392
H      7.64558      5.87395     10.35389         0.528227      0.038501     -0.138848
H      7.64558     15.10445     10.62451         0.923677     -0.198176      0.312708
H     13.33282      5.87395     10.62451        -0.435923      0.187840     -0.059103
H     13.33282     15.10445     10.35389        -1.028485     -0.093290      0.285843
H     12.45634     12.45634     19.01126         0.267150      0.256948     -0.224709
H     19.01126     19.01126     19.01126        -0.247436     -0.235454     -0.262024
H     19.01126     12.45634     12.45634        -0.241011      0.270146      0.239499
H     12.45634     19.01126     12.45634         0.210237     -0.283580      0.253042
C     10.35284      5.61067      6.59456        -0.125318     -0.434257     -0.419972
C     10.62556     15.36773      6.59456         0.017889      0.350786     -1.150380
C     10.62556      5.61067     14.38384        -0.028263     -0.227157      0.723198
C     10.35284     15.36773     14.38384         0.184121      0.766716      0.143573
C      6.59456     10.35284      5.61067        -0.412575     -0.041542     -0.182190
C      6.59456     10.62556     15.36773        -0.774814      0.150929      0.347020
C     14.38384     10.62556      5.61067         0.634659      0.289040     -0.358314
C     14.38384     10.35284     15.36773         0.716857     -0.118694      0.418653
C      5.61067      6.59456     10.35284        -0.429647     -0.761116      0.271820
C     15.36773      6.59456     10.62556         0.200357     -0.464049      0.048092
C      5.61067     14.38384     10.62556        -0.263496      0.374173     -0.021855
C     15.36773     14.38384     10.35284         0.394834      0.165058      0.216631
C      5.61067     10.35284      6.59456        -0.313006     -0.014380     -0.893879
C     15.36773     10.62556      6.59456         0.576426     -0.155880     -1.234264
C      5.61067     10.62556     14.38384        -0.465634      0.008990      0.924942
C     15.36773     10.35284     14.38384         0.518463     -0.175389      1.247967
C     10.35284      6.59456      5.61067        -0.033836     -0.927987     -0.676922
C     10.62556      6.59456     15.36773         0.048999     -0.699419      0.301266
C     10.62556     14.38384      5.61067         0.040693      1.257994     -0.704878
C     10.35284     14.38384     15.36773         0.105323      0.611807      0.650239
C      6.59456      5.61067     10.35284        -0.223417     -0.903191      0.134495
C      6.59456     15.36773     10.62556        -1.739770      0.498018      0.035096
C     14.38384      5.61067     10.62556         0.580075     -0.227274     -0.008605
C     14.38384     15.36773     10.35284         0.219525      0.548600     -0.232009
C     10.40319      3.19606      7.29314         0.015146      0.901293     -0.249143
C     10.35913      4.25547      6.23373        -0.051493     -0.364314      0.613082
C      0.08601      7.29314      7.29314        -0.008584     -0.235505     -0.464249
C      0.13007      6.23373      6.23373         0.000965      0.125720      0.209794
C      0.08601      3.19606      3.19606        -0.016859      0.634565      0.181242
C      0.13007      4.25547      4.25547        -0.091408     -0.199632     -0.165948
C     10.40319      7.29314      3.19606        -0.002499     -0.684096      0.528094
C     10.35913      6.23373      4.25547        -0.007705      0.512230     -0.390299
C      7.29314     10.40319      3.19606        -0.340618      0.022471      0.859488
C      6.23373     10.35913      4.25547         0.208376      0.010327     -0.144636
C      7.29314      0.08601      7.29314        -0.306186     -0.046667     -0.270567
C      6.23373      0.13007      6.23373         0.266587     -0.057879      0.289550
C      3.19606      0.08601      3.19606         0.421297     -0.051926      1.319006
C      4.25547      0.13007      4.25547        -0.118664     -0.026073     -0.462240
C      3.19606     10.40319      7.29314         0.698199      0.014964     -0.265116
C      4.25547     10.35913      6.23373        -0.131806      0.028366      0.101634
C      3.19606      7.29314     10.40319         0.605437     -1.267538      0.026922
C      4.25547      6.23373     10.35913        -0.734910      0.825272      0.041674
C      7.29314      7.29314      0.08601        -0.649909     -0.169039     -0.023005
C      6.23373      6.23373      0.13007         0.168308      0.275590     -0.009868
C      3.19606      3.19606      0.08601         0.240120      0.250062     -0.020017
C      4.25547      4.25547      0.13007        -0.053784     -0.037263      0.013818
C      7.29314      3.19606     10.40319        -0.372490      0.788820      0.017189
C      6.23373      4.25547     10.35913         0.868026     -0.167313      0.011634
O     10.43466      3.58206      8.50569        -0.049461      0.034221      0.319420
O     10.54374     17.39634      8.50569        -0.022760     -0.182462      0.600233
O     10.54374      3.58206     12.47271         0.055239      0.064770     -0.326609
O     10.43466     17.39634     12.47271        -0.023195     -0.126817     -0.582766
O      8.50569     10.43466      3.58206         0.382006     -0.024760     -0.013236
O      8.50569     10.54374     17.39634         0.469005      0.053721     -0.143498
O     12.47271     10.54374      3.58206        -0.272001      0.051665     -0.082390
O     12.47271     10.43466     17.39634        -0.848627      0.020504     -0.222475
O      3.58206      8.50569     10.43466         0.039487      0.914455      0.042122
O     17.39634      8.50569     10.54374        -0.041176      0.340318      0.077920
O      3.58206     12.47271     10.54374         0.065803     -0.420653      0.063909
O     17.39634     12.47271     10.43466        -0.169902     -0.774993      0.017889
O      3.58206     10.43466      8.50569        -0.053656     -0.065234      0.231463
O     17.39634     10.54374      8.50569        -0.136929      0.042917      0.458464
O      3.58206     10.54374     12.47271        -0.024962     -0.052379     -0.897055
O     17.39634     10.43466     12.47271        -0.197814      0.043405     -0.767287
O     10.43466      8.50569      3.58206         0.042701      0.676398      0.190183
O     10.54374      8.50569     17.39634         0.052820      0.431462     -0.080891
O     10.54374     12.47271      3.58206        -0.007006     -0.722244      0.225928
O     10.43466     12.47271     17.39634         0.046948     -0.844431     -0.273942
O      8.50569      3.58206     10.43466         0.493185      0.077007     -0.039044
O      8.50569     17.39634     10.54374         0.648802     -0.248639     -0.059071
O     12.47271      3.58206     10.54374        -0.486027      0.163670      0.039904
O     12.47271     17.39634     10.43466        -0.531824     -0.038830     -0.030800
O     11.90042     11.90042     19.56718        -0.304767     -0.312488      0.265288
O     19.56718     19.56718     19.56718         0.287018      0.272502      0.320800
O     19.56718     11.90042     11.90042         0.279861     -0.330862     -0.245560
O     11.90042     19.56718     11.90042        -0.226329      0.291120     -0.240359
O      9.45224      1.03696      9.45224        -0.074518      0.047870     -0.066743
O      1.03696      9.45224      9.45224         0.057946     -0.142430     -0.055327
O      1.03696      1.03696      1.03696         0.046635      0.030579      0.185704
O      9.45224      9.45224      1.03696        -0.039972     -0.091276      0.122057
Zr     10.48920      2.52580     10.48920        -0.007479     -0.072224     -0.022021
Zr     10.48920     18.45260     10.48920         0.052813      0.302190     -0.075401
Zr     10.48920     10.48920      2.52580        -0.106559      0.017038     -0.365926
Zr     10.48920     10.48920     18.45260        -0.130313     -0.156419      0.322645
Zr      2.52580     10.48920     10.48920        -0.346635      0.319380     -0.475816
Zr     18.45260     10.48920     10.48920         0.243340      0.036963     -0.261216
Pd      9.04917     10.26652     13.32565        -0.016118     -0.016753      0.005558
Pd     10.58601      9.73241     11.00390        -0.011513     -0.012174     -0.047480
Pd     13.76330      8.53681     12.69217         0.006243      0.002221     -0.004506
Pd     11.00119     11.08132     15.01721         0.001772     -0.013738     -0.003300
Pd     12.83819     11.17124     13.00313         0.024591      0.003942      0.006240
Pd     14.97763     10.93034     11.34932         0.015308      0.008070     -0.005848
Pd      6.64880      7.42592     12.34174         0.004359      0.019357      0.000906
Pd      9.22727      7.25600     10.13591         0.004165      0.011824     -0.026904
Pd      9.25975      7.60916     12.80729         0.010858     -0.008825     -0.020743
Pd     11.69565      7.28613     11.47144         0.007560      0.001328     -0.007093
Pd     11.38918      7.99654      8.87046         0.028943     -0.004813     -0.009913
Pd      7.25977     11.83482     11.96152         0.001344     -0.001195     -0.011323
Pd      8.88023     14.66871      9.32425         0.033551      0.002462      0.007007
Pd      8.41913     12.65819     14.32303        -0.003473     -0.009541     -0.003486
Pd     13.48285     14.07952      8.58940         0.071723      0.029477     -0.046157
Pd     10.94555     13.31990      8.49612         0.059881      0.030764      0.035280
Pd     14.09259     11.51004      8.93195         0.006474      0.029434      0.000810
Pd      8.61350     14.11165     12.10352         0.010509     -0.008044     -0.002322
Pd     12.24486     13.72970     14.02386        -0.003802     -0.014290      0.005086
Pd     11.13658     14.44536     11.12568         0.024325     -0.014320      0.035292
Pd     14.06497     13.54178     12.17743        -0.012321      0.010670     -0.007458
Pd     12.30997     12.17262     10.66410        -0.003017     -0.028576      0.005344
Pd     12.66638     12.31520      6.72862         0.011522      0.033298     -0.017604
Pd     13.64735      8.93776      7.92502         0.036535      0.004739      0.010745
Pd      6.85927      8.45798      8.85394         0.011912      0.014325     -0.004225
Pd      5.52677      9.92214     11.28929         0.002970      0.027939     -0.049720
Pd      9.13654      9.75478      8.32259         0.032444     -0.014410     -0.014549
Pd      8.82806      7.24487      7.47580        -0.010712      0.002482     -0.032814
Pd      9.51519     12.08288     10.42311         0.020458      0.003176     -0.002046
Pd     11.53030     10.70473      8.58931         0.020773      0.009261     -0.035705
Pd     11.22464      9.24504      6.44939         0.043564     -0.023561     -0.009155
Pd      9.89683     11.56499      6.39424         0.022973     -0.028593     -0.016407
Ir     11.35260      9.09110     13.37959        -0.002005      0.018347     -0.037702
Ir     13.06927      9.47764     10.40255         0.013455      0.014685     -0.002440
Ir     10.53224     12.37034     12.70232        -0.002592     -0.021135      0.010295
Ir      7.12055     10.97385      9.51784         0.022785     -0.008639     -0.002316
Ir      8.37118     12.44763      8.18952         0.079814      0.035558     -0.035720
Ir      8.06348      9.29420     11.11835         0.000164      0.005312     -0.008370
