152
# total energy = -1001.17673888 eVH     10.35389      5.87395      7.64558         0.256418     -0.182147      1.645552
H     10.62451     15.10445      7.64558         0.021642      0.080885      1.100492
H     10.62451      5.87395     13.33282         0.330084      0.015561     -1.225979
H     10.35389     15.10445     13.33282        -0.159270     -0.171279     -0.870945
H      7.64558     10.35389      5.87395         1.187902      0.493007     -0.532278
H      7.64558     10.62451     15.10445         0.597259      0.175634      0.034152
H     13.33282     10.62451      5.87395        -1.482580      0.599460     -0.666303
H     13.33282     10.35389     15.10445        -0.598059     -0.076289      0.002405
H      5.87395      7.64558     10.35389        -0.521811      2.032995      0.317890
H     15.10445      7.64558     10.62451         0.510722      1.488708     -0.426882
H      5.87395     13.33282     10.62451        -0.458149     -1.084977     -0.547322
H     15.10445     13.33282     10.35389         0.188392     -1.138575     -0.381987
H      5.87395     10.35389      7.64558        -1.561554      0.492498      1.647797
H     15.10445     10.62451      7.64558         0.884584      0.617820      1.704173
H      5.87395     10.62451     13.33282        -1.627512      0.608106     -1.174744
H     15.10445     10.35389     13.33282         1.335331     -0.042619     -1.037961
H     10.35389      7.64558      5.87395         0.460531      1.054271     -0.150824
H     10.62451      7.64558     15.10445         0.178334      0.553137     -0.096643
H     10.62451     13.33282      5.87395        -0.744809     -1.377721     -0.504704
H     10.35389     13.33282     15.10445        -0.071002     -0.444783     -0.140525
H      7.64558      5.87395     10.35389         0.708550     -0.171814      0.062747
H      7.64558     15.10445     10.62451         0.593920     -0.101707     -0.160095
H     13.33282      5.87395     10.62451        -0.796441      0.001756     -0.112698
H     13.33282     15.10445     10.35389        -0.433495     -0.080906     -0.048802
H     12.45634     12.45634     19.01126         0.252259      0.234901     -0.252342
H     19.01126     19.01126     19.01126        -0.249888     -0.244751     -0.244761
H     19.01126     12.45634     12.45634        -0.261452      0.262485      0.231024
H     12.45634     19.01126     12.45634         0.263896     -0.268745      0.222548
C     10.35284      5.61067      6.59456         0.076947     -1.047232     -1.847738
C     10.62556     15.36773      6.59456        -0.235032      0.738197     -0.981754
C     10.62556      5.61067     14.38384        -0.276746     -0.368468      1.580479
C     10.35284     15.36773     14.38384         0.133071      0.230033      0.950429
C      6.59456     10.35284      5.61067        -2.133925      0.195141     -1.471572
C      6.59456     10.62556     15.36773        -0.958545      0.120416      0.653612
C     14.38384     10.62556      5.61067         2.279737      0.174778     -1.351014
C     14.38384     10.35284     15.36773         0.988330     -0.003061      0.510199
C      5.61067      6.59456     10.35284        -0.594100     -1.665255      0.012323
C     15.36773      6.59456     10.62556         0.393059     -1.216672     -0.117673
C      5.61067     14.38384     10.62556        -0.207562      1.401794      0.035033
C     15.36773     14.38384     10.35284         0.229810      1.344392      0.062295
C      5.61067     10.35284      6.59456        -0.805820      0.042134     -2.188436
C     15.36773     10.62556      6.59456         1.006080      0.316440     -1.749477
C      5.61067     10.62556     14.38384         0.031862     -0.046145      1.957532
C     15.36773     10.35284     14.38384        -0.038275     -0.034516      1.797160
C     10.35284      6.59456      5.61067         0.164664     -1.330204     -1.046912
C     10.62556      6.59456     15.36773         0.114695     -0.494524      0.502408
C     10.62556     14.38384      5.61067         0.094017      1.459247     -0.722712
C     10.35284     14.38384     15.36773        -0.014944      0.447414      0.327840
C      6.59456      5.61067     10.35284        -0.646642     -1.170144      0.013772
C      6.59456     15.36773     10.62556        -0.969020      0.701203     -0.032661
C     14.38384      5.61067     10.62556         0.949369     -0.934258     -0.156506
C     14.38384     15.36773     10.35284         0.447205      0.544011     -0.031282
C     10.40319      3.19606      7.29314        -0.037920      0.205798     -0.655209
C     10.35913      4.25547      6.23373        -0.067135     -0.552664      0.208689
C      0.08601      7.29314      7.29314        -0.000689     -0.301039     -0.301453
C      0.13007      6.23373      6.23373         0.023530      0.369007      0.248763
C      0.08601      3.19606      3.19606         0.031135      0.484832      0.504621
C      0.13007      4.25547      4.25547         0.006257     -0.520817     -0.456773
C     10.40319      7.29314      3.19606        -0.062917     -0.795235      0.245801
C     10.35913      6.23373      4.25547        -0.031155      0.302552     -0.505736
C      7.29314     10.40319      3.19606        -0.697204     -0.021587      0.090192
C      6.23373     10.35913      4.25547         0.416394     -0.042294     -0.478339
C      7.29314      0.08601      7.29314        -0.345109     -0.048827     -0.270681
C      6.23373      0.13007      6.23373         0.419959     -0.153332      0.417350
C      3.19606      0.08601      3.19606         0.943548     -0.026102      0.219778
C      4.25547      0.13007      4.25547        -0.594529     -0.209855     -0.606340
C      3.19606     10.40319      7.29314         0.246114     -0.009594     -0.234485
C      4.25547     10.35913      6.23373        -0.270506     -0.028340      0.437341
C      3.19606      7.29314     10.40319         0.250445     -0.400881      0.009373
C      4.25547      6.23373     10.35913        -0.728279      0.189913      0.051736
C      7.29314      7.29314      0.08601        -0.379578     -0.291466      0.010473
C      6.23373      6.23373      0.13007         0.561015      0.233419      0.061730
C      3.19606      3.19606      0.08601         0.669934      0.276476      0.025098
C      4.25547      4.25547      0.13007        -0.429488     -0.459724      0.064646
C      7.29314      3.19606     10.40319        -0.301679      0.344673      0.021155
C      6.23373      4.25547     10.35913         0.411028     -0.373679      0.052431
O     10.43466      3.58206      8.50569         0.073650      0.220165      0.629820
O     10.54374     17.39634      8.50569         0.016923     -0.185724      0.446145
O     10.54374      3.58206     12.47271         0.090294      0.166423     -0.506529
O     10.43466     17.39634     12.47271        -0.020975     -0.083993     -0.343854
O      8.50569     10.43466      3.58206         0.633562     -0.132699      0.241554
O      8.50569     10.54374     17.39634         0.522893      0.010014     -0.218448
O     12.47271     10.54374      3.58206        -0.827855      0.052390      0.259125
O     12.47271     10.43466     17.39634        -0.450491     -0.004854     -0.205702
O      3.58206      8.50569     10.43466         0.178557      0.547786     -0.023541
O     17.39634      8.50569     10.54374        -0.158563      0.437572      0.037203
O      3.58206     12.47271     10.54374         0.083379     -0.353304      0.023354
O     17.39634     12.47271     10.43466        -0.174604     -0.479150     -0.026081
O      3.58206     10.43466      8.50569         0.187265     -0.020488      0.391562
O     17.39634     10.54374      8.50569        -0.175836      0.048426      0.414059
O      3.58206     10.54374     12.47271         0.003676      0.050449     -0.206144
O     17.39634     10.43466     12.47271        -0.072211     -0.009200     -0.215167
O     10.43466      8.50569      3.58206        -0.098800      0.673662      0.159647
O     10.54374      8.50569     17.39634         0.010045      0.491683     -0.186453
O     10.54374     12.47271      3.58206         0.046498     -0.490925      0.078298
O     10.43466     12.47271     17.39634        -0.027100     -0.379117     -0.094210
O      8.50569      3.58206     10.43466         0.542131      0.142254     -0.033136
O      8.50569     17.39634     10.54374         0.559716     -0.202008      0.047314
O     12.47271      3.58206     10.54374        -0.704604      0.210919      0.044798
O     12.47271     17.39634     10.43466        -0.494165     -0.145876     -0.025159
O     11.90042     11.90042     19.56718        -0.291172     -0.254264      0.301624
O     19.56718     19.56718     19.56718         0.298071      0.298854      0.297615
O     19.56718     11.90042     11.90042         0.319560     -0.296281     -0.225505
O     11.90042     19.56718     11.90042        -0.305684      0.325284     -0.206316
O      9.45224      1.03696      9.45224        -0.023546      0.100878     -0.038742
O      1.03696      9.45224      9.45224         0.060828     -0.029495     -0.045322
O      1.03696      1.03696      1.03696         0.055815      0.098615      0.109188
O      9.45224      9.45224      1.03696        -0.051625     -0.042485      0.135726
Zr     10.48920      2.52580     10.48920        -0.187683     -0.296303     -0.041761
Zr     10.48920     18.45260     10.48920         0.083752      0.120445     -0.100732
Zr     10.48920     10.48920      2.52580        -0.056183      0.038739     -0.356157
Zr     10.48920     10.48920     18.45260        -0.016044     -0.049320      0.168166
Zr      2.52580     10.48920     10.48920        -0.111714     -0.108609     -0.096832
Zr     18.45260     10.48920     10.48920         0.089804      0.005274     -0.097913
Pd     11.61137      8.64379     10.19227         0.113514      0.128884     -0.230155
Pd      6.95705     10.25140     10.22465         0.159825     -0.092919      0.253881
Pd      7.21262     12.60188     11.55038         0.096309      0.115576      0.351698
Pd     11.66024     13.19405      7.34511         0.434781      0.161785     -0.033717
Pd     11.42567      8.43002      7.38775         0.307838      0.121693      0.336893
Pd      8.96457      7.07899      7.55512        -0.641712      0.014900     -0.170218
Pd     11.39135     10.87340      5.92541         0.064321      0.062541     -0.023852
Pd     13.48789      9.92105      7.53909        -0.613500     -0.932308      0.597205
Pd      9.26990     11.80426      7.23789         0.196215      0.154006      0.079260
Pd      7.11109      7.90044     11.72537        -0.079883     -0.206104      0.227736
Pd      6.95013      7.76594      8.90768        -0.159032     -0.088415     -0.206737
Pd      7.36183     10.24705     12.77446         0.788931     -0.377209      0.051451
Pd     11.53867      6.22088      8.95666        -0.018962     -0.263999      0.135844
Pd      9.28671      9.29908      5.96728         0.023626      0.220063     -0.299834
Pd      9.23041     14.10238      8.65379         0.021646      0.105525      0.068712
Pd     11.51673      6.32065     11.59451        -0.041517     -0.232782      0.207781
Pd      9.45207      9.33807      8.91782         0.894498     -0.332344      0.635964
Pd      9.27735     11.80031     10.05576        -0.281484     -0.042335      0.002780
Pd      9.30667      7.02018     10.28402         0.113208      0.208944     -0.108339
Pd      9.26127      7.21101     12.99476        -0.214925     -0.160241      0.316348
Pd      9.42290      9.47628     11.50875        -0.272346      0.008119      0.129187
Pd     11.44626     10.99941      8.75197         0.238923     -0.151040     -0.044580
Pd      7.04196     12.56215      8.72017        -0.070656      0.028808      0.057290
Pd      7.49670      9.98880      7.76704        -0.508877     -0.073793     -0.001567
Pd     13.75872      7.66866      8.83607         0.319946     -0.232269      0.075213
Pd     13.66392      7.95466     11.66712         0.266462     -0.159292      0.821039
Pd      9.38041     11.98958     12.87991        -0.031198     -0.149769      0.068324
Pd     13.77198     12.50688      8.62092         0.390381     -0.146088      0.278125
Pd     13.57301     10.38737     12.66957        -0.463299      0.133726      0.160031
Pd     13.85587     10.20310     10.08991        -0.019966     -0.143267      0.040532
Pd     11.48009     11.10543     11.38490         0.165366      0.127292      0.166302
Pd     11.54471     13.46860      9.98776        -0.001646      0.061621     -0.023542
Pd     13.71306     12.61693     11.34998        -0.002405      0.140298      0.174134
Pd     11.60814     13.47862     12.69423         0.230284      0.245765      0.296805
Pd     11.56134     11.21520     14.15070        -0.018178      0.164948      0.286946
Pd     11.53656      8.71757     12.96211         0.093090      0.057196      0.140910
Pd      9.42714      9.59689     14.28220        -0.048172      0.001957      0.312774
Pd      9.36726     14.21698     11.31921         0.095819      0.143925      0.119387
