8
# total energy = -53.48117987 eVC      1.14292     13.21793      0.00000        -0.000000     -0.365818     -0.000000
C      1.14292      4.06827     -0.00000         0.000000      0.365818      0.000000
O      1.14292      5.25963      0.00000         0.000000     -0.092331      0.000000
O      1.14292     12.02657     -0.00000        -0.000000      0.092331      0.000000
O     -0.00000     13.98662      0.00000        -0.000000      0.149109      0.000000
O      0.00000      3.29958     -0.00000         0.000000     -0.149109     -0.000000
Ir     -0.00000      8.64310      0.00000         0.000000      0.000000      0.000000
Ir     -0.00000      0.00000      0.00000         0.000000      0.000000      0.000000
