152
# total energy = -1093.12774022 eVH     10.35389      5.87395      7.64558         0.128025     -0.123602      1.305258
H     10.62451     15.10445      7.64558        -0.171121      0.112340      1.421402
H     10.62451      5.87395     13.33282         0.160607     -0.059255     -1.169322
H     10.35389     15.10445     13.33282        -0.043363     -0.066320     -0.955694
H      7.64558     10.35389      5.87395         0.474989      0.014881     -0.059491
H      7.64558     10.62451     15.10445         0.409507      0.003472     -0.005383
H     13.33282     10.62451      5.87395        -0.663958     -0.039942     -0.001467
H     13.33282     10.35389     15.10445        -0.417198      0.002914      0.001427
H      5.87395      7.64558     10.35389        -0.131188      1.299712      0.124802
H     15.10445      7.64558     10.62451        -0.003141      0.510553      0.034750
H      5.87395     13.33282     10.62451        -0.059788     -0.236921      0.033425
H     15.10445     13.33282     10.35389         0.243479     -1.616781      0.100244
H      5.87395     10.35389      7.64558        -0.099104     -0.692399      0.470466
H     15.10445     10.62451      7.64558         0.489664      0.832598      0.089589
H      5.87395     10.62451     13.33282        -0.021784     -0.186303     -0.290359
H     15.10445     10.35389     13.33282        -0.085861      0.210809     -0.102647
H     10.35389      7.64558      5.87395        -0.166255      0.456616      0.039034
H     10.62451      7.64558     15.10445         0.046632      0.557781      0.246944
H     10.62451     13.33282      5.87395        -0.002663     -0.463485     -0.170781
H     10.35389     13.33282     15.10445        -0.168553     -0.515264      0.212778
H      7.64558      5.87395     10.35389         0.453228     -0.016748     -0.046064
H      7.64558     15.10445     10.62451         0.303337      0.020468     -0.030831
H     13.33282      5.87395     10.62451        -0.207094     -0.093565     -0.017144
H     13.33282     15.10445     10.35389        -0.510940      0.125495     -0.026911
H     12.45634     12.45634     19.01126         0.265226      0.246946     -0.243998
H     19.01126     19.01126     19.01126        -0.262389     -0.242925     -0.252928
H     19.01126     12.45634     12.45634        -0.263237      0.264976      0.232591
H     12.45634     19.01126     12.45634         0.274154     -0.254488      0.226411
C     10.35284      5.61067      6.59456        -0.216608     -0.279182     -1.752821
C     10.62556     15.36773      6.59456         0.431390      0.114599     -1.875358
C     10.62556      5.61067     14.38384        -0.342878     -0.105398      1.683753
C     10.35284     15.36773     14.38384         0.281175      0.132600      1.655996
C      6.59456     10.35284      5.61067        -0.838713     -0.105846     -0.302101
C      6.59456     10.62556     15.36773        -0.826712     -0.008982      0.100998
C     14.38384     10.62556      5.61067         1.039301      0.035881     -0.231793
C     14.38384     10.35284     15.36773         0.784102     -0.009297      0.187467
C      5.61067      6.59456     10.35284        -0.084020     -1.573458      0.013459
C     15.36773      6.59456     10.62556         0.272987     -0.981030      0.032121
C      5.61067     14.38384     10.62556        -0.386432      0.746749      0.036576
C     15.36773     14.38384     10.35284         0.040493      1.856052     -0.086236
C      5.61067     10.35284      6.59456        -0.705054      0.239221     -1.798683
C     15.36773     10.62556      6.59456         0.774200     -0.216373     -1.997431
C      5.61067     10.62556     14.38384        -0.647133      0.092051      1.647822
C     15.36773     10.35284     14.38384         0.598997     -0.073719      1.428458
C     10.35284      6.59456      5.61067         0.026800     -1.573144     -0.771238
C     10.62556      6.59456     15.36773        -0.036063     -1.830379      0.744001
C     10.62556     14.38384      5.61067         0.104074      1.802929     -0.881791
C     10.35284     14.38384     15.36773         0.044401      1.896375      0.654959
C      6.59456      5.61067     10.35284        -0.790057     -0.802431     -0.020433
C      6.59456     15.36773     10.62556        -1.051266      0.560594      0.075545
C     14.38384      5.61067     10.62556         1.020603     -0.757648      0.091619
C     14.38384     15.36773     10.35284         0.889612      0.959595      0.007212
C     10.40319      3.19606      7.29314        -0.002167      0.534462     -0.535476
C     10.35913      4.25547      6.23373        -0.022549     -0.832318      0.512377
C      0.08601      7.29314      7.29314         0.018597     -0.488498     -0.587428
C      0.13007      6.23373      6.23373         0.036179      0.895480      0.471520
C      0.08601      3.19606      3.19606         0.024062      0.704035      0.445607
C      0.13007      4.25547      4.25547        -0.043170     -0.769626     -0.491028
C     10.40319      7.29314      3.19606        -0.010114     -0.729696      0.498450
C     10.35913      6.23373      4.25547         0.019267      0.585194     -0.507965
C      7.29314     10.40319      3.19606        -0.303145     -0.008720      0.589183
C      6.23373     10.35913      4.25547         0.174534     -0.073361     -0.174135
C      7.29314      0.08601      7.29314        -0.236007     -0.030868     -0.394420
C      6.23373      0.13007      6.23373         0.151558     -0.095799      0.371227
C      3.19606      0.08601      3.19606         0.407972      0.010342      0.427936
C      4.25547      0.13007      4.25547        -0.191499      0.072346     -0.212911
C      3.19606     10.40319      7.29314         0.254333      0.027110     -0.474737
C      4.25547     10.35913      6.23373        -0.166319      0.105540      0.381844
C      3.19606      7.29314     10.40319         0.186421     -0.308146      0.000030
C      4.25547      6.23373     10.35913        -0.567532      0.190174      0.046072
C      7.29314      7.29314      0.08601        -0.587598     -0.467404      0.005339
C      6.23373      6.23373      0.13007         0.123876      0.223584     -0.060398
C      3.19606      3.19606      0.08601         0.560659      0.416768      0.000898
C      4.25547      4.25547      0.13007        -0.057706     -0.094816     -0.030638
C      7.29314      3.19606     10.40319        -0.213252      0.364204      0.000641
C      6.23373      4.25547     10.35913         0.627253     -0.262244      0.025332
O     10.43466      3.58206      8.50569         0.011756      0.227511      0.480216
O     10.54374     17.39634      8.50569        -0.032396     -0.234659      0.513499
O     10.54374      3.58206     12.47271         0.078791      0.154944     -0.376174
O     10.43466     17.39634     12.47271        -0.108433     -0.146635     -0.381827
O      8.50569     10.43466      3.58206         0.390145     -0.020173      0.057099
O      8.50569     10.54374     17.39634         0.452575      0.059066     -0.120794
O     12.47271     10.54374      3.58206        -0.510294     -0.010559      0.115993
O     12.47271     10.43466     17.39634        -0.440295     -0.054056     -0.115854
O      3.58206      8.50569     10.43466         0.169241      0.422039     -0.049222
O     17.39634      8.50569     10.54374        -0.083835      0.556838      0.045795
O      3.58206     12.47271     10.54374         0.047540     -0.512783      0.041298
O     17.39634     12.47271     10.43466        -0.175290     -0.464420     -0.021034
O      3.58206     10.43466      8.50569         0.177643     -0.017039      0.479603
O     17.39634     10.54374      8.50569        -0.122344     -0.011539      0.456628
O      3.58206     10.54374     12.47271         0.168850      0.083957     -0.447458
O     17.39634     10.43466     12.47271        -0.205096     -0.077736     -0.571211
O     10.43466      8.50569      3.58206         0.050290      0.612559      0.261060
O     10.54374      8.50569     17.39634         0.061644      0.510314     -0.217281
O     10.54374     12.47271      3.58206        -0.015399     -0.662209      0.278519
O     10.43466     12.47271     17.39634        -0.030651     -0.530911     -0.227361
O      8.50569      3.58206     10.43466         0.514463      0.149236     -0.030081
O      8.50569     17.39634     10.54374         0.613059     -0.094187      0.049232
O     12.47271      3.58206     10.54374        -0.633322      0.117160      0.027713
O     12.47271     17.39634     10.43466        -0.495633     -0.140459     -0.015667
O     11.90042     11.90042     19.56718        -0.311011     -0.285101      0.269408
O     19.56718     19.56718     19.56718         0.310422      0.270734      0.290451
O     19.56718     11.90042     11.90042         0.315260     -0.313562     -0.234638
O     11.90042     19.56718     11.90042        -0.333272      0.281153     -0.226172
O      9.45224      1.03696      9.45224        -0.040216      0.054793     -0.065979
O      1.03696      9.45224      9.45224         0.028466     -0.081816     -0.060572
O      1.03696      1.03696      1.03696         0.026508      0.048796      0.133277
O      9.45224      9.45224      1.03696        -0.033466     -0.085682      0.133606
Zr     10.48920      2.52580     10.48920        -0.101931     -0.119937     -0.009370
Zr     10.48920     18.45260     10.48920         0.130337      0.190138     -0.108576
Zr     10.48920     10.48920      2.52580         0.006253      0.090876     -0.321584
Zr     10.48920     10.48920     18.45260        -0.025808     -0.016054      0.148382
Zr      2.52580     10.48920     10.48920        -0.029401     -0.026574     -0.050843
Zr     18.45260     10.48920     10.48920         0.114654      0.116219     -0.164629
Pd     12.99460      8.07528      7.67069        -0.002597      0.013397     -0.024615
Pd      9.57749     14.60165     11.72849        -0.014954     -0.025678      0.035701
Pd     12.34755     10.91237     10.43131        -0.015273      0.024093     -0.039617
Pd     14.71596     10.05741     11.57081        -0.019252     -0.040272      0.008909
Pd     10.99891      9.29683      6.18127        -0.017192     -0.031460     -0.020187
Pd      6.95741      8.50400      9.00118        -0.005532     -0.011598     -0.001864
Ir     10.27251     11.86481     11.75742        -0.024567      0.021820     -0.013715
Ir     12.95013      8.30766     10.34380        -0.027308     -0.012628     -0.027479
Ir     12.31836     11.00383      7.73476        -0.039623      0.007104      0.002856
Ir      9.66741     14.38809      9.13888         0.037653     -0.023100      0.014022
Ir     10.82589      9.20116     11.73040        -0.013807     -0.004010     -0.022468
Ir      8.72022     10.05669      7.77220        -0.049380      0.010425     -0.009446
Ir     13.87378     12.54864      9.02658        -0.019392     -0.024330      0.027426
Ir     11.96738     13.58556      7.80191         0.011641     -0.022963      0.006411
Ir     14.31513      9.92799      9.02679        -0.019678     -0.000258     -0.011455
Ir      9.24494      7.43900     10.41268        -0.020350      0.001580      0.000077
Ir      8.15889     12.71089      7.82524        -0.006032      0.012943      0.030371
Ir      9.19636      7.59257      7.83893        -0.045890     -0.026605     -0.028864
Ir     11.85777     13.54133     13.01914         0.021563     -0.003155      0.024299
Ir     11.43440      6.70996     11.73946         0.032435      0.007911     -0.010213
Ir     10.25333     11.82200      9.07854        -0.022019     -0.029921     -0.005909
Ir     12.95058      8.36058     12.98078        -0.029398     -0.015605      0.032143
Ir     10.85350      9.16523      9.00254        -0.007607     -0.041093     -0.012582
Ir     11.78885     13.60225     10.39893        -0.014068     -0.010327     -0.002326
Ir     13.83375     12.64999     11.77704         0.027196      0.003375      0.040250
Ir     12.39592     11.01820     13.08710        -0.004251     -0.022305      0.018262
Ir     10.14414     11.69467      6.48724        -0.015026      0.004709      0.018296
Ir     11.34677      6.59556      9.23204         0.013271     -0.015276     -0.018614
Ir      7.23202      8.35836     11.81647        -0.035373     -0.001582     -0.004335
Ir      8.18967     12.71116     10.42738        -0.017507     -0.018083      0.030546
Ir     10.93158      9.27767     14.28969        -0.036929     -0.000318     -0.047341
Ir      8.10761     12.54232     12.98871        -0.020241      0.024262     -0.010289
Ir      6.58603     11.21194      9.09832         0.011136      0.033012     -0.005052
Ir      8.68900     10.04850     13.07425        -0.031946      0.001709      0.001899
Ir      6.60624     10.90186     11.55621         0.000311      0.021722      0.010934
Ir      9.16150      7.46987     13.07591        -0.011914      0.006550     -0.061329
Ir     10.21983     11.66272     14.36709        -0.032361     -0.001039     -0.022011
Ir      8.74116     10.05788     10.41323        -0.013609      0.007689      0.016334
