152
# total energy = -1001.55999498 eVH     10.35389      5.87395      7.64558         0.168019     -0.037051      1.545409
H     10.62451     15.10445      7.64558         0.022845      0.024546      1.077770
H     10.62451      5.87395     13.33282         0.302925      0.041731     -1.225090
H     10.35389     15.10445     13.33282        -0.176499     -0.169200     -0.906086
H      7.64558     10.35389      5.87395         1.210419      0.474072     -0.425771
H      7.64558     10.62451     15.10445         0.593733      0.182818      0.024596
H     13.33282     10.62451      5.87395        -1.373380      0.547140     -0.490633
H     13.33282     10.35389     15.10445        -0.597577     -0.087951      0.004453
H      5.87395      7.64558     10.35389        -0.602596      2.216167      0.669685
H     15.10445      7.64558     10.62451         0.335762      1.500206     -0.246268
H      5.87395     13.33282     10.62451        -0.299004     -1.084634     -0.440889
H     15.10445     13.33282     10.35389         0.162145     -1.170597     -0.349241
H      5.87395     10.35389      7.64558        -1.713385      0.542466      1.727069
H     15.10445     10.62451      7.64558         0.720854      0.570722      1.617648
H      5.87395     10.62451     13.33282        -1.436051      0.592129     -1.217615
H     15.10445     10.35389     13.33282         1.176190     -0.076493     -1.081583
H     10.35389      7.64558      5.87395         0.418773      1.070732     -0.107237
H     10.62451      7.64558     15.10445         0.192893      0.568412     -0.097147
H     10.62451     13.33282      5.87395        -0.660772     -1.308190     -0.340059
H     10.35389     13.33282     15.10445        -0.082975     -0.456981     -0.142898
H      7.64558      5.87395     10.35389         0.715908     -0.167428      0.091109
H      7.64558     15.10445     10.62451         0.586748     -0.115207     -0.150956
H     13.33282      5.87395     10.62451        -0.816303      0.024852     -0.037681
H     13.33282     15.10445     10.35389        -0.432635     -0.079234     -0.051492
H     12.45634     12.45634     19.01126         0.252890      0.234243     -0.252395
H     19.01126     19.01126     19.01126        -0.249996     -0.245757     -0.244241
H     19.01126     12.45634     12.45634        -0.262028      0.265306      0.228965
H     12.45634     19.01126     12.45634         0.265597     -0.270745      0.219942
C     10.35284      5.61067      6.59456        -0.008008     -0.986400     -1.603089
C     10.62556     15.36773      6.59456        -0.214210      0.677572     -0.927227
C     10.62556      5.61067     14.38384        -0.283074     -0.389039      1.569843
C     10.35284     15.36773     14.38384         0.151823      0.245172      0.964569
C      6.59456     10.35284      5.61067        -2.135382      0.173011     -1.423106
C      6.59456     10.62556     15.36773        -0.937535      0.127678      0.675613
C     14.38384     10.62556      5.61067         2.115707      0.160356     -1.225731
C     14.38384     10.35284     15.36773         0.992752     -0.007878      0.520139
C      5.61067      6.59456     10.35284        -0.723437     -1.813196      0.127427
C     15.36773      6.59456     10.62556         0.402834     -1.035538     -0.117018
C      5.61067     14.38384     10.62556        -0.218299      1.276155      0.038008
C     15.36773     14.38384     10.35284         0.237652      1.344588      0.046030
C      5.61067     10.35284      6.59456        -0.788750      0.033596     -2.274452
C     15.36773     10.62556      6.59456         0.849026      0.271580     -1.602528
C      5.61067     10.62556     14.38384        -0.019019     -0.048517      1.888206
C     15.36773     10.35284     14.38384        -0.027668     -0.016583      1.737836
C     10.35284      6.59456      5.61067         0.100405     -1.257064     -0.948030
C     10.62556      6.59456     15.36773         0.116776     -0.513444      0.528490
C     10.62556     14.38384      5.61067         0.111731      1.329847     -0.663311
C     10.35284     14.38384     15.36773        -0.020912      0.447572      0.366781
C      6.59456      5.61067     10.35284        -0.512012     -1.220112      0.051359
C      6.59456     15.36773     10.62556        -0.929464      0.710754     -0.027717
C     14.38384      5.61067     10.62556         0.845309     -0.892908     -0.165461
C     14.38384     15.36773     10.35284         0.437371      0.565715     -0.025587
C     10.40319      3.19606      7.29314        -0.035407      0.222317     -0.681170
C     10.35913      4.25547      6.23373        -0.058567     -0.568378      0.172885
C      0.08601      7.29314      7.29314        -0.000822     -0.325772     -0.309740
C      0.13007      6.23373      6.23373         0.016652      0.375379      0.247204
C      0.08601      3.19606      3.19606         0.031201      0.508583      0.538276
C      0.13007      4.25547      4.25547         0.014494     -0.510867     -0.460407
C     10.40319      7.29314      3.19606        -0.061862     -0.839122      0.247935
C     10.35913      6.23373      4.25547        -0.016459      0.300594     -0.529488
C      7.29314     10.40319      3.19606        -0.752045     -0.025051      0.078882
C      6.23373     10.35913      4.25547         0.418170     -0.039997     -0.465884
C      7.29314      0.08601      7.29314        -0.355694     -0.049748     -0.264976
C      6.23373      0.13007      6.23373         0.420881     -0.157167      0.376940
C      3.19606      0.08601      3.19606         0.985212     -0.021684      0.212244
C      4.25547      0.13007      4.25547        -0.546919     -0.212889     -0.591461
C      3.19606     10.40319      7.29314         0.256477     -0.010109     -0.228927
C      4.25547     10.35913      6.23373        -0.284777     -0.021211      0.450071
C      3.19606      7.29314     10.40319         0.269579     -0.424134     -0.001758
C      4.25547      6.23373     10.35913        -0.803573      0.174517      0.059162
C      7.29314      7.29314      0.08601        -0.397432     -0.312629      0.006124
C      6.23373      6.23373      0.13007         0.618178      0.200349      0.042302
C      3.19606      3.19606      0.08601         0.716123      0.290860      0.019319
C      4.25547      4.25547      0.13007        -0.415851     -0.509658      0.027989
C      7.29314      3.19606     10.40319        -0.320774      0.375558      0.010735
C      6.23373      4.25547     10.35913         0.423256     -0.412786      0.032439
O     10.43466      3.58206      8.50569         0.078475      0.222778      0.643631
O     10.54374     17.39634      8.50569         0.014046     -0.179448      0.448296
O     10.54374      3.58206     12.47271         0.095992      0.162170     -0.521542
O     10.43466     17.39634     12.47271        -0.022596     -0.076940     -0.339554
O      8.50569     10.43466      3.58206         0.651099     -0.131673      0.229136
O      8.50569     10.54374     17.39634         0.527852      0.007121     -0.219790
O     12.47271     10.54374      3.58206        -0.835564      0.055596      0.265239
O     12.47271     10.43466     17.39634        -0.458143     -0.002802     -0.207980
O      3.58206      8.50569     10.43466         0.168994      0.569652     -0.017511
O     17.39634      8.50569     10.54374        -0.157433      0.454900      0.039347
O      3.58206     12.47271     10.54374         0.079510     -0.362502      0.026455
O     17.39634     12.47271     10.43466        -0.174083     -0.503451     -0.022647
O      3.58206     10.43466      8.50569         0.180893     -0.018440      0.386656
O     17.39634     10.54374      8.50569        -0.168691      0.050777      0.406307
O      3.58206     10.54374     12.47271        -0.008030      0.050773     -0.194305
O     17.39634     10.43466     12.47271        -0.059595     -0.008541     -0.195235
O     10.43466      8.50569      3.58206        -0.097552      0.686139      0.147383
O     10.54374      8.50569     17.39634         0.008384      0.508189     -0.185471
O     10.54374     12.47271      3.58206         0.039858     -0.492447      0.059784
O     10.43466     12.47271     17.39634        -0.027477     -0.383651     -0.088394
O      8.50569      3.58206     10.43466         0.557046      0.138398     -0.032472
O      8.50569     17.39634     10.54374         0.568590     -0.197464      0.048452
O     12.47271      3.58206     10.54374        -0.724619      0.203238      0.045062
O     12.47271     17.39634     10.43466        -0.511032     -0.141374     -0.021705
O     11.90042     11.90042     19.56718        -0.292225     -0.252026      0.300618
O     19.56718     19.56718     19.56718         0.297217      0.300956      0.296280
O     19.56718     11.90042     11.90042         0.319527     -0.299601     -0.219684
O     11.90042     19.56718     11.90042        -0.308496      0.328669     -0.199256
O      9.45224      1.03696      9.45224        -0.023746      0.100740     -0.040209
O      1.03696      9.45224      9.45224         0.058843     -0.026382     -0.047261
O      1.03696      1.03696      1.03696         0.056530      0.101079      0.112285
O      9.45224      9.45224      1.03696        -0.056621     -0.041904      0.139438
Zr     10.48920      2.52580     10.48920        -0.201291     -0.297793     -0.042564
Zr     10.48920     18.45260     10.48920         0.092873      0.110784     -0.108881
Zr     10.48920     10.48920      2.52580        -0.044779      0.049045     -0.359256
Zr     10.48920     10.48920     18.45260        -0.010104     -0.053823      0.171276
Zr      2.52580     10.48920     10.48920        -0.106884     -0.119796     -0.104534
Zr     18.45260     10.48920     10.48920         0.093844      0.007676     -0.105690
Pd     11.69628      8.62966     10.21115         0.131404     -0.014568     -0.098413
Pd      6.96950     10.25045     10.27184         0.260506     -0.237431     -0.149260
Pd      7.23954     12.60804     11.61386        -0.045461      0.162505      0.204256
Pd     11.74132     13.20889      7.34339         0.247109      0.148529     -0.010779
Pd     11.38424      8.39191      7.43389         0.616362      0.146002     -0.067924
Pd      8.88203      7.06544      7.51368        -0.422714      0.210761     -0.098450
Pd     11.39642     10.89588      5.89094         0.096409      0.014557      0.219980
Pd     13.47732      9.87171      7.55905        -0.557879     -0.989669      0.627107
Pd      9.30103     11.82295      7.24380         0.021785     -0.057877      0.176357
Pd      7.09730      7.85383     11.77216        -0.120995     -0.058228     -0.023903
Pd      6.86581      7.71709      8.92731         0.507499      0.396141     -0.763281
Pd      7.37973     10.21249     12.79000         0.991330     -0.334222      0.208759
Pd     11.55729      6.18358      8.97575        -0.169271     -0.179852      0.137418
Pd      9.29056      9.32948      5.90760         0.030387      0.175122      0.108563
Pd      9.21348     14.12772      8.67027         0.174262     -0.009772      0.024475
Pd     11.51264      6.27683     11.61621        -0.027911     -0.002758      0.205739
Pd      9.55231      9.29920      8.95946        -1.041219      0.275433     -0.229394
Pd      9.24330     11.80891     10.05363        -0.188060     -0.134906     -0.002133
Pd      9.33453      7.04740     10.29580        -0.043876      0.008194     -0.201838
Pd      9.21856      7.19355     13.03216         0.008514     -0.149685      0.340707
Pd      9.47734      9.45231     11.52177        -0.898238      0.207090      0.163459
Pd     11.44946     11.02252      8.77216         0.448546     -0.095478     -0.255372
Pd      7.02520     12.58249      8.72099         0.009263     -0.102226      0.104265
Pd      7.46939      9.98491      7.78444         1.213801     -0.621886      0.775087
Pd     13.81777      7.56782      8.88050         0.199331      0.114904     -0.080858
Pd     13.67317      7.93741     11.77144         0.341264     -0.136398      0.693887
Pd      9.42382     11.99315     12.88852        -0.408407     -0.210893      0.097137
Pd     13.84477     12.49641      8.65503         0.119699     -0.248507      0.231088
Pd     13.54143     10.42534     12.69132        -0.506616     -0.104642      0.162091
Pd     13.85793     10.19226     10.12285         0.032800     -0.106139     -0.045317
Pd     11.44794     11.14122     11.38443         0.540324     -0.052625      0.259648
Pd     11.53904     13.46688     10.01610         0.040094      0.146377     -0.321947
Pd     13.70923     12.63611     11.38061         0.066310      0.137457      0.058594
Pd     11.63855     13.50634     12.73070         0.161832      0.255261      0.289019
Pd     11.54513     11.24547     14.19780         0.091412      0.087096      0.265853
Pd     11.48952      8.71887     12.97444         0.666720     -0.042673      0.197744
Pd      9.45636      9.58496     14.34195        -0.300739      0.090907      0.238601
Pd      9.38701     14.24554     11.33048         0.027662      0.019530      0.168228
