152
# total energy = -1004.58437296 eVH     10.35389      5.87395      7.64558        -0.102607      0.094585      0.682217
H     10.62451     15.10445      7.64558        -0.079920     -0.187705      0.529382
H     10.62451      5.87395     13.33282         0.403472      0.019854     -0.864804
H     10.35389     15.10445     13.33282         0.046263     -0.166972     -0.492911
H      7.64558     10.35389      5.87395         0.359343      0.040530      0.153314
H      7.64558     10.62451     15.10445         0.970874      0.622964      0.016113
H     13.33282     10.62451      5.87395        -0.491616      0.186432      0.113074
H     13.33282     10.35389     15.10445        -0.839715     -0.247153      0.042585
H      5.87395      7.64558     10.35389         0.247012      1.718628      0.204589
H     15.10445      7.64558     10.62451        -0.094965      0.516898      0.252889
H      5.87395     13.33282     10.62451         0.194545     -0.568799     -0.014660
H     15.10445     13.33282     10.35389         0.109044     -1.213319     -0.422682
H      5.87395     10.35389      7.64558         0.149840      0.042324      0.487184
H     15.10445     10.62451      7.64558        -0.194651      0.758273      1.206764
H      5.87395     10.62451     13.33282         0.005663      0.512811     -1.175605
H     15.10445     10.35389     13.33282         0.032657     -0.192902     -0.788545
H     10.35389      7.64558      5.87395         0.165208      1.355718      0.087200
H     10.62451      7.64558     15.10445         0.515836      0.754986     -0.111086
H     10.62451     13.33282      5.87395        -0.359034     -0.669450      0.311999
H     10.35389     13.33282     15.10445        -0.258011     -0.481191     -0.330710
H      7.64558      5.87395     10.35389         1.131489     -0.183102     -0.094670
H      7.64558     15.10445     10.62451         0.825737     -0.192179     -0.021158
H     13.33282      5.87395     10.62451        -0.584438      0.133824      0.622981
H     13.33282     15.10445     10.35389        -0.575574     -0.034832     -0.256939
H     12.45634     12.45634     19.01126         0.266181      0.259697     -0.229250
H     19.01126     19.01126     19.01126        -0.272402     -0.259648     -0.222879
H     19.01126     12.45634     12.45634        -0.278184      0.257804      0.223966
H     12.45634     19.01126     12.45634         0.240286     -0.277959      0.247622
C     10.35284      5.61067      6.59456        -0.175990     -0.817157     -0.321513
C     10.62556     15.36773      6.59456         0.035185      0.223189     -0.372330
C     10.62556      5.61067     14.38384        -0.036773     -0.390958      0.590133
C     10.35284     15.36773     14.38384         0.003096      0.275770      0.495151
C      6.59456     10.35284      5.61067        -0.450816      0.040371     -0.286895
C      6.59456     10.62556     15.36773        -0.900825      0.147759      0.689718
C     14.38384     10.62556      5.61067         0.549979     -0.061806     -0.875984
C     14.38384     10.35284     15.36773         0.946413     -0.114083      0.323579
C      5.61067      6.59456     10.35284        -0.872073     -0.823186     -0.388879
C     15.36773      6.59456     10.62556         0.681295     -0.027494     -0.266651
C      5.61067     14.38384     10.62556        -0.234200      0.627401      0.010209
C     15.36773     14.38384     10.35284         0.325687      1.168539      0.082249
C      5.61067     10.35284      6.59456        -0.273078      0.017439     -0.719613
C     15.36773     10.62556      6.59456         0.568308     -0.224364     -0.642403
C      5.61067     10.62556     14.38384        -0.546107     -0.016290      0.738086
C     15.36773     10.35284     14.38384         0.508587     -0.086681      1.070010
C     10.35284      6.59456      5.61067        -0.050552     -0.913615     -0.399457
C     10.62556      6.59456     15.36773         0.135634     -0.797003      0.496218
C     10.62556     14.38384      5.61067         0.089305      1.140032     -0.300284
C     10.35284     14.38384     15.36773        -0.027123      1.089679      0.524428
C      6.59456      5.61067     10.35284        -0.435958     -1.237810      0.116520
C      6.59456     15.36773     10.62556        -0.984418      0.183272      0.105020
C     14.38384      5.61067     10.62556        -0.140110     -0.468131     -0.320989
C     14.38384     15.36773     10.35284         0.291187      0.539314     -0.049025
C     10.40319      3.19606      7.29314         0.013554      0.922486     -0.504986
C     10.35913      4.25547      6.23373         0.053254     -0.568125      0.128452
C      0.08601      7.29314      7.29314        -0.028561     -0.979103     -0.203821
C      0.13007      6.23373      6.23373        -0.096742      0.283217      0.315296
C      0.08601      3.19606      3.19606         0.051663      1.364035      0.151317
C      0.13007      4.25547      4.25547        -0.037581     -0.369059     -0.339400
C     10.40319      7.29314      3.19606        -0.001011     -0.474640      0.274248
C     10.35913      6.23373      4.25547        -0.009315      0.107055     -0.766827
C      7.29314     10.40319      3.19606        -0.282017      0.018314      0.549222
C      6.23373     10.35913      4.25547         0.202424      0.086154     -0.112112
C      7.29314      0.08601      7.29314        -1.019681     -0.101905     -0.362587
C      6.23373      0.13007      6.23373         0.708727     -0.205088      0.450392
C      3.19606      0.08601      3.19606         1.233243     -0.020009      0.466797
C      4.25547      0.13007      4.25547        -0.682754     -0.186378     -0.341763
C      3.19606     10.40319      7.29314         0.573615      0.019393     -0.398085
C      4.25547     10.35913      6.23373        -0.234712      0.106114      0.226628
C      3.19606      7.29314     10.40319         0.349795     -0.930134      0.033685
C      4.25547      6.23373     10.35913        -1.113217      0.152560      0.181298
C      7.29314      7.29314      0.08601        -0.474715     -0.503689     -0.014769
C      6.23373      6.23373      0.13007         0.486790      0.321172      0.011625
C      3.19606      3.19606      0.08601         0.519139      0.407176     -0.026425
C      4.25547      4.25547      0.13007        -0.041226     -0.716446     -0.092851
C      7.29314      3.19606     10.40319        -0.398917      0.506851      0.055386
C      6.23373      4.25547     10.35913         0.536770     -0.708746      0.219496
O     10.43466      3.58206      8.50569        -0.009456      0.061846      0.471334
O     10.54374     17.39634      8.50569         0.057386     -0.021413      0.252544
O     10.54374      3.58206     12.47271        -0.001168     -0.099863     -0.106884
O     10.43466     17.39634     12.47271        -0.037522     -0.138609     -0.494270
O      8.50569     10.43466      3.58206         0.342330     -0.023559      0.035745
O      8.50569     10.54374     17.39634         0.849896     -0.051409     -0.154660
O     12.47271     10.54374      3.58206        -0.886336      0.099258      0.048179
O     12.47271     10.43466     17.39634        -0.581549      0.023462     -0.139023
O      3.58206      8.50569     10.43466         0.192291      0.922563     -0.018584
O     17.39634      8.50569     10.54374        -0.150612      0.673333      0.045882
O      3.58206     12.47271     10.54374         0.104130     -0.542701      0.050923
O     17.39634     12.47271     10.43466        -0.166874     -0.604434     -0.032697
O      3.58206     10.43466      8.50569         0.076592     -0.064249      0.474272
O     17.39634     10.54374      8.50569         0.017940      0.097250      0.402524
O      3.58206     10.54374     12.47271        -0.027672      0.028220     -0.370274
O     17.39634     10.43466     12.47271        -0.216709     -0.033514     -0.678407
O     10.43466      8.50569      3.58206        -0.036316      0.561148      0.158417
O     10.54374      8.50569     17.39634        -0.086408      0.786473     -0.224111
O     10.54374     12.47271      3.58206         0.077724     -0.945652      0.111810
O     10.43466     12.47271     17.39634         0.075415     -0.770911     -0.202222
O      8.50569      3.58206     10.43466         0.570414      0.143192     -0.048588
O      8.50569     17.39634     10.54374         0.552842     -0.151182     -0.000621
O     12.47271      3.58206     10.54374        -0.683635      0.153420      0.022204
O     12.47271     17.39634     10.43466        -0.406364     -0.038391     -0.036768
O     11.90042     11.90042     19.56718        -0.313736     -0.295852      0.235922
O     19.56718     19.56718     19.56718         0.311056      0.303854      0.217101
O     19.56718     11.90042     11.90042         0.328599     -0.269051     -0.231522
O     11.90042     19.56718     11.90042        -0.258039      0.339746     -0.274524
O      9.45224      1.03696      9.45224        -0.018465      0.079630     -0.133163
O      1.03696      9.45224      9.45224         0.067503     -0.045287     -0.142551
O      1.03696      1.03696      1.03696         0.087133      0.121938      0.070092
O      9.45224      9.45224      1.03696        -0.073153     -0.064117      0.051592
Zr     10.48920      2.52580     10.48920        -0.048180     -0.206453      0.017583
Zr     10.48920     18.45260     10.48920        -0.019834      0.093749      0.189640
Zr     10.48920     10.48920      2.52580        -0.259609     -0.437899     -0.307878
Zr     10.48920     10.48920     18.45260         0.054237      0.032771      0.437059
Zr      2.52580     10.48920     10.48920        -0.228065      0.129433      0.042649
Zr     18.45260     10.48920     10.48920         0.179879     -0.012605     -0.027234
Pd     13.09863      8.56049      9.74393         0.049755     -0.008617     -0.021898
Pd      6.11331      9.68117     10.18553        -0.031492     -0.022576     -0.008086
Pd      6.96206     11.60257     11.76781        -0.029277     -0.013690     -0.027671
Pd     12.32045     13.13143      7.37626        -0.022042      0.076990      0.004711
Pd     12.12200      7.76736      7.04448         0.007702     -0.004297     -0.025605
Pd      8.47235      7.25650      6.90653        -0.007752     -0.027951     -0.039782
Pd     11.27449     11.39492      5.55738        -0.001774      0.041337      0.057332
Pd     14.53432      8.74687      7.45589         0.031668     -0.028794     -0.065075
Pd      9.93524     11.81476      7.99360        -0.056866     -0.073388      0.046643
Pd      7.00777      7.09009     12.06603        -0.027680     -0.059968      0.002943
Pd      6.35197      7.48483      8.41734        -0.015630      0.018577      0.002951
Pd      7.20836      9.09441     13.71293        -0.004442      0.027506     -0.055852
Pd     11.46256      6.39648      9.21875        -0.014007      0.016239      0.032783
Pd      9.96803      9.47271      6.66217        -0.010235     -0.005870      0.009283
Pd      9.05750     14.01656      9.34376         0.019339     -0.059003      0.028125
Pd     10.83509      7.46533     11.45196        -0.025180      0.010392      0.018656
Pd     10.48780      9.13334      9.32163         0.031265     -0.005443      0.029954
Pd      9.50237     11.52344     10.59915        -0.044023     -0.016737      0.035781
Pd      8.88143      7.11028      9.58255         0.004380     -0.005343     -0.031928
Pd      9.18726      7.42441     13.46519        -0.003519     -0.002895      0.035618
Pd      8.53221      9.19950     11.32384        -0.006498     -0.040937      0.005519
Pd     12.28055     10.39035      7.83154         0.032781     -0.005015     -0.001543
Pd      7.31283     11.97952      9.14991        -0.009583      0.005723      0.000646
Pd      8.07100      9.58003      8.43741         0.000973     -0.019891      0.047487
Pd     14.04257      6.36295      8.49536         0.002281      0.014734     -0.009928
Pd     13.10797      8.51170     12.38327        -0.006341     -0.007709     -0.045394
Pd      8.96291     11.44654     13.39768        -0.007662     -0.022624      0.006995
Pd     13.87737     11.98663      9.14302         0.013329      0.031743     -0.049729
Pd     13.14308     11.16787     13.20009         0.011806     -0.042571     -0.009358
Pd     14.70629     10.36122     11.08417         0.004741     -0.004824     -0.059616
Pd     12.05883     10.79444     10.72313        -0.020601     -0.029288      0.041747
Pd     11.51577     13.32451      9.86808         0.014306     -0.055807     -0.002913
Pd     13.61946     13.18291     11.62618         0.019921     -0.056233     -0.023006
Pd     11.13172     12.78637     12.44612        -0.027243     -0.025419      0.017646
Pd     11.18384     11.58485     14.90467         0.007172     -0.017505      0.014921
Pd     10.84551      9.74350     12.82418        -0.056310     -0.011060      0.012324
Pd      9.55597      9.51239     15.20303        -0.075529     -0.047001     -0.035776
Pd      8.70531     13.72128     12.00025        -0.030905      0.037565     -0.003893
