152
# total energy = -1024.08091044 eVH     10.35389      5.87395      7.64558         0.558456      0.063064      0.796828
H     10.62451     15.10445      7.64558         0.006736     -0.163658      0.551225
H     10.62451      5.87395     13.33282         0.145081      0.156912     -0.655089
H     10.35389     15.10445     13.33282        -0.316348     -0.062331     -0.706100
H      7.64558     10.35389      5.87395         0.318763     -0.013778      0.188826
H      7.64558     10.62451     15.10445         1.014798     -0.381914      0.008209
H     13.33282     10.62451      5.87395        -0.751903     -0.004903      0.183331
H     13.33282     10.35389     15.10445        -0.847394     -0.351443      0.167037
H      5.87395      7.64558     10.35389         0.208538      0.699533     -0.048835
H     15.10445      7.64558     10.62451        -0.146080      0.402842     -0.043016
H      5.87395     13.33282     10.62451         0.176168     -0.492918     -0.082887
H     15.10445     13.33282     10.35389        -0.112581     -1.090205      0.022242
H      5.87395     10.35389      7.64558         0.149378      0.104638      0.455819
H     15.10445     10.62451      7.64558         0.062688      0.107674      1.084927
H      5.87395     10.62451     13.33282         0.103227     -0.030340     -0.383866
H     15.10445     10.35389     13.33282        -0.074036     -0.144212     -0.636667
H     10.35389      7.64558      5.87395         0.076970      0.866162      0.210745
H     10.62451      7.64558     15.10445         0.016390      0.289458     -0.176605
H     10.62451     13.33282      5.87395        -0.046947     -0.552522      0.254728
H     10.35389     13.33282     15.10445        -0.510677     -0.713336     -0.047879
H      7.64558      5.87395     10.35389         0.456547      0.115697      0.049367
H      7.64558     15.10445     10.62451         0.822833     -0.287355      0.046270
H     13.33282      5.87395     10.62451        -0.503026      0.170490     -0.065909
H     13.33282     15.10445     10.35389        -0.632579     -0.053251      0.183467
H     12.45634     12.45634     19.01126         0.240612      0.279909     -0.229967
H     19.01126     19.01126     19.01126        -0.254192     -0.238653     -0.250954
H     19.01126     12.45634     12.45634        -0.252162      0.273144      0.224218
H     12.45634     19.01126     12.45634         0.227354     -0.263432      0.243319
C     10.35284      5.61067      6.59456        -0.165826     -0.593175      0.058866
C     10.62556     15.36773      6.59456         0.010343      0.429826     -0.755558
C     10.62556      5.61067     14.38384        -0.047298     -0.105166      0.784720
C     10.35284     15.36773     14.38384         0.110083      0.700919      0.249166
C      6.59456     10.35284      5.61067        -0.381469     -0.032097     -0.238954
C      6.59456     10.62556     15.36773        -1.089727      0.412714      0.403113
C     14.38384     10.62556      5.61067         0.402079      0.291542     -0.588995
C     14.38384     10.35284     15.36773         1.004088     -0.045120      0.415071
C      5.61067      6.59456     10.35284        -0.376870     -0.486024      0.266450
C     15.36773      6.59456     10.62556         0.180297     -0.523431      0.028805
C      5.61067     14.38384     10.62556        -0.126075      0.497850     -0.002497
C     15.36773     14.38384     10.35284         0.357658     -0.075916     -0.151131
C      5.61067     10.35284      6.59456        -0.274541     -0.049275     -0.816659
C     15.36773     10.62556      6.59456         0.693574     -0.323068     -1.166499
C      5.61067     10.62556     14.38384        -0.547788     -0.018644      0.191278
C     15.36773     10.35284     14.38384         0.667411     -0.128096      1.142136
C     10.35284      6.59456      5.61067        -0.264403     -0.430921     -0.774755
C     10.62556      6.59456     15.36773         0.050415     -0.288584      0.124360
C     10.62556     14.38384      5.61067         0.153146      1.127175     -0.414309
C     10.35284     14.38384     15.36773         0.203460      0.234593      0.666173
C      6.59456      5.61067     10.35284        -0.321258     -0.770525      0.055168
C      6.59456     15.36773     10.62556        -1.298423      0.326556      0.057658
C     14.38384      5.61067     10.62556         0.740599     -0.249643      0.015787
C     14.38384     15.36773     10.35284        -0.541442      0.719410     -0.316492
C     10.40319      3.19606      7.29314        -0.006096      0.874210     -0.394381
C     10.35913      4.25547      6.23373         0.034232     -0.524246      0.554136
C      0.08601      7.29314      7.29314        -0.007137     -0.470607     -0.401825
C      0.13007      6.23373      6.23373        -0.014363      0.025877      0.097176
C      0.08601      3.19606      3.19606        -0.018993      0.965129      0.184957
C      0.13007      4.25547      4.25547        -0.068016     -0.207092     -0.246977
C     10.40319      7.29314      3.19606        -0.008123     -0.915249      0.470467
C     10.35913      6.23373      4.25547         0.020031      0.441264     -0.639869
C      7.29314     10.40319      3.19606        -0.443182      0.042416      0.833877
C      6.23373     10.35913      4.25547         0.248730      0.091884     -0.116736
C      7.29314      0.08601      7.29314        -0.448124     -0.024372     -0.264766
C      6.23373      0.13007      6.23373         0.423912     -0.064469      0.482717
C      3.19606      0.08601      3.19606         0.738949     -0.018310      0.394925
C      4.25547      0.13007      4.25547        -0.109056     -0.052790     -0.436843
C      3.19606     10.40319      7.29314         0.674510     -0.002238     -0.687961
C      4.25547     10.35913      6.23373        -0.248098      0.109080      0.226945
C      3.19606      7.29314     10.40319         0.502562     -1.292131     -0.031232
C      4.25547      6.23373     10.35913        -0.418181      0.848262      0.047117
C      7.29314      7.29314      0.08601        -0.544657     -0.234544     -0.014052
C      6.23373      6.23373      0.13007         0.172363      0.144939     -0.014051
C      3.19606      3.19606      0.08601         0.244311      0.304370     -0.023429
C      4.25547      4.25547      0.13007        -0.071586     -0.044214      0.017114
C      7.29314      3.19606     10.40319        -0.360652      0.727909      0.018550
C      6.23373      4.25547     10.35913         1.120159      0.072860      0.009207
O     10.43466      3.58206      8.50569        -0.032909      0.038504      0.438665
O     10.54374     17.39634      8.50569        -0.022565     -0.099705      0.473402
O     10.54374      3.58206     12.47271         0.052244     -0.027211     -0.202666
O     10.43466     17.39634     12.47271        -0.045981     -0.074521     -0.541686
O      8.50569     10.43466      3.58206         0.396496     -0.015221     -0.015631
O      8.50569     10.54374     17.39634         0.555278      0.027333     -0.159931
O     12.47271     10.54374      3.58206        -0.657333     -0.023730      0.160294
O     12.47271     10.43466     17.39634        -0.622638     -0.027803     -0.084061
O      3.58206      8.50569     10.43466         0.178686      1.116253     -0.001650
O     17.39634      8.50569     10.54374        -0.044551      0.371531      0.072803
O      3.58206     12.47271     10.54374         0.077366     -0.480314      0.031662
O     17.39634     12.47271     10.43466        -0.159995     -0.725765      0.014468
O      3.58206     10.43466      8.50569        -0.000091     -0.068855      0.561091
O     17.39634     10.54374      8.50569        -0.109875      0.040619      0.392654
O      3.58206     10.54374     12.47271         0.037086      0.011154     -0.401690
O     17.39634     10.43466     12.47271        -0.213393      0.022417     -0.724823
O     10.43466      8.50569      3.58206         0.082743      0.818377      0.194557
O     10.54374      8.50569     17.39634         0.069393      0.632970     -0.137419
O     10.54374     12.47271      3.58206        -0.043577     -0.928349      0.246205
O     10.43466     12.47271     17.39634         0.008204     -0.946827     -0.219938
O      8.50569      3.58206     10.43466         0.513122      0.087969     -0.022771
O      8.50569     17.39634     10.54374         0.623330     -0.243733     -0.037240
O     12.47271      3.58206     10.54374        -0.451855      0.136244      0.053944
O     12.47271     17.39634     10.43466        -0.414586      0.032186     -0.016976
O     11.90042     11.90042     19.56718        -0.267001     -0.333694      0.252515
O     19.56718     19.56718     19.56718         0.287757      0.272862      0.297218
O     19.56718     11.90042     11.90042         0.278781     -0.317166     -0.207842
O     11.90042     19.56718     11.90042        -0.272597      0.290983     -0.262695
O      9.45224      1.03696      9.45224        -0.077934      0.048865     -0.059276
O      1.03696      9.45224      9.45224         0.054864     -0.155784     -0.100075
O      1.03696      1.03696      1.03696         0.015701      0.072995      0.192622
O      9.45224      9.45224      1.03696        -0.054764     -0.081945      0.135874
Zr     10.48920      2.52580     10.48920        -0.026235     -0.081337     -0.142194
Zr     10.48920     18.45260     10.48920         0.088431      0.253622      0.017038
Zr     10.48920     10.48920      2.52580         0.011744     -0.140125     -0.531200
Zr     10.48920     10.48920     18.45260        -0.189478      0.034668      0.467986
Zr      2.52580     10.48920     10.48920        -0.392470      0.272690      0.109950
Zr     18.45260     10.48920     10.48920         0.206421      0.051233     -0.291693
Pd      8.60616      9.87590     13.35693        -0.019691      0.044401     -0.091479
Pd     10.53631      9.54656     10.30971        -0.046528     -0.110732      0.230259
Pd     13.45671      8.74350     12.52966        -0.035713     -0.005942     -0.012696
Pd     10.75497     10.66267     15.11082        -0.131438     -0.014579      0.066049
Pd     13.02100     11.30136     13.40683        -0.106167      0.029280     -0.008911
Pd     14.99007     10.76953     11.27134        -0.004937      0.000850      0.066826
Pd      6.69213      7.92315     12.52330         0.042808     -0.037182      0.087456
Pd      9.28915      7.21667      9.66195        -0.064339     -0.063147     -0.037810
Pd      9.37345      7.47399     12.42010        -0.039862     -0.021954     -0.015212
Pd     11.69616      7.25976     11.16536         0.020440      0.037499     -0.080594
Pd     11.69721      7.80248      8.50780         0.013603      0.029549     -0.050981
Pd      7.27095     11.71811     11.63003         0.005580      0.028838      0.017035
Pd      9.28059     14.55185      9.53295         0.043050     -0.165797     -0.124537
Pd      8.08713     12.38744     14.23693         0.116469      0.009139     -0.039445
Pd     14.16028     14.19807      8.33723         0.004025      0.047625     -0.006166
Pd     11.64936     13.44742      8.89235         0.091080     -0.036274     -0.065647
Pd     14.07319     11.63363      8.92447        -0.025626     -0.003104      0.019020
Pd      8.75237     13.90917     12.21243        -0.001165      0.018094     -0.090404
Pd     12.19032     13.75873     14.06215         0.012377      0.138831      0.025149
Pd     11.39766     14.07460     11.46922         0.057442      0.129448      0.013774
Pd     14.05001     13.51799     12.16091        -0.026934     -0.157619      0.018828
Pd     12.36645     11.65880     10.91665        -0.025062      0.007295     -0.061490
Pd     12.79715     12.62218      6.64126        -0.028791      0.008656      0.034342
Pd     13.94713      8.90028      7.68064         0.008298      0.034661      0.018413
Pd      7.00572      8.41609      8.58043        -0.036166      0.035089     -0.026596
Pd      5.63668     10.07702     10.28136        -0.082584     -0.108935     -0.055106
Pd      9.42111      9.33487      7.69691        -0.095835      0.097140     -0.075046
Pd      8.48694      6.85471      7.05329        -0.019059      0.097673      0.018630
Pd      9.73313     11.99608     10.55141        -0.107935     -0.058065     -0.087090
Pd     11.65742     10.72350      8.20156        -0.040709      0.035205     -0.034449
Pd     11.71277      9.02808      6.09394        -0.069283      0.026974     -0.028998
Pd     10.23203     11.30374      5.96500         0.061484     -0.022735     -0.115068
Ir     11.04608      9.53105     12.78277         0.179627      0.066246     -0.083602
Ir     13.17937      9.34533     10.05918         0.012017      0.013336     -0.054601
Ir     10.46766     12.02090     12.94567         0.119375     -0.114329     -0.001814
Ir      7.79590     10.93286      9.10595         0.152513      0.140571     -0.035360
Ir      9.36926     12.37372      8.05853        -0.164069     -0.179031      0.185361
Ir      8.09808      9.23696     10.89477         0.105747      0.057524     -0.110286
