152
# total energy = -1022.89009105 eVH     10.35389      5.87395      7.64558         0.477201      0.032680      0.900547
H     10.62451     15.10445      7.64558        -0.051650      0.024372      0.769036
H     10.62451      5.87395     13.33282         0.144385      0.117202     -0.607235
H     10.35389     15.10445     13.33282        -0.273359     -0.075029     -0.574964
H      7.64558     10.35389      5.87395         0.334371     -0.034911      0.190985
H      7.64558     10.62451     15.10445         0.617121     -0.190756     -0.137510
H     13.33282     10.62451      5.87395        -0.840318     -0.298893      0.172155
H     13.33282     10.35389     15.10445        -0.471524     -0.097606     -0.056502
H      5.87395      7.64558     10.35389         0.129139      1.117579     -0.152628
H     15.10445      7.64558     10.62451        -0.168239      0.405675     -0.085776
H      5.87395     13.33282     10.62451         0.144086     -0.409654     -0.071225
H     15.10445     13.33282     10.35389        -0.077848     -0.970727     -0.181253
H      5.87395     10.35389      7.64558         0.131752      0.043559      0.483898
H     15.10445     10.62451      7.64558         0.120749     -0.201618      0.832612
H      5.87395     10.62451     13.33282         0.263826     -0.032236     -0.393987
H     15.10445     10.35389     13.33282        -0.139589      0.010618     -0.635541
H     10.35389      7.64558      5.87395         0.061723      0.848778      0.121607
H     10.62451      7.64558     15.10445         0.029852      0.538704     -0.146654
H     10.62451     13.33282      5.87395         0.056739     -0.605702      0.193141
H     10.35389     13.33282     15.10445        -0.259483     -0.883517     -0.104058
H      7.64558      5.87395     10.35389         0.523637      0.043750     -0.130657
H      7.64558     15.10445     10.62451         0.902794     -0.221350      0.271898
H     13.33282      5.87395     10.62451        -0.436289      0.185806     -0.058809
H     13.33282     15.10445     10.35389        -0.969072     -0.105116      0.225640
H     12.45634     12.45634     19.01126         0.266726      0.258173     -0.224599
H     19.01126     19.01126     19.01126        -0.247741     -0.234477     -0.262622
H     19.01126     12.45634     12.45634        -0.241195      0.270419      0.238583
H     12.45634     19.01126     12.45634         0.212097     -0.282610      0.252316
C     10.35284      5.61067      6.59456        -0.129568     -0.433481     -0.390974
C     10.62556     15.36773      6.59456         0.024908      0.345134     -1.150799
C     10.62556      5.61067     14.38384        -0.026955     -0.216536      0.725813
C     10.35284     15.36773     14.38384         0.180922      0.781803      0.154865
C      6.59456     10.35284      5.61067        -0.420354     -0.039175     -0.183243
C      6.59456     10.62556     15.36773        -0.794820      0.151081      0.352391
C     14.38384     10.62556      5.61067         0.603367      0.277625     -0.376957
C     14.38384     10.35284     15.36773         0.745721     -0.121653      0.434210
C      5.61067      6.59456     10.35284        -0.423399     -0.748172      0.284332
C     15.36773      6.59456     10.62556         0.193364     -0.472482      0.045330
C      5.61067     14.38384     10.62556        -0.246691      0.385433     -0.025738
C     15.36773     14.38384     10.35284         0.409437      0.115235      0.155697
C      5.61067     10.35284      6.59456        -0.304703     -0.013778     -0.883242
C     15.36773     10.62556      6.59456         0.565949     -0.155005     -1.230856
C      5.61067     10.62556     14.38384        -0.455044      0.006611      0.867013
C     15.36773     10.35284     14.38384         0.529116     -0.182234      1.244362
C     10.35284      6.59456      5.61067        -0.041806     -0.907432     -0.672809
C     10.62556      6.59456     15.36773         0.040103     -0.636982      0.292520
C     10.62556     14.38384      5.61067         0.048688      1.241234     -0.673587
C     10.35284     14.38384     15.36773         0.093301      0.583486      0.672961
C      6.59456      5.61067     10.35284        -0.211908     -0.887019      0.125030
C      6.59456     15.36773     10.62556        -1.710705      0.490900      0.056562
C     14.38384      5.61067     10.62556         0.584976     -0.223669     -0.006351
C     14.38384     15.36773     10.35284         0.086712      0.568739     -0.247689
C     10.40319      3.19606      7.29314         0.016769      0.916850     -0.257193
C     10.35913      4.25547      6.23373        -0.051780     -0.370159      0.615513
C      0.08601      7.29314      7.29314        -0.008959     -0.240044     -0.475687
C      0.13007      6.23373      6.23373         0.003933      0.111161      0.206756
C      0.08601      3.19606      3.19606        -0.016167      0.650534      0.180369
C      0.13007      4.25547      4.25547        -0.089549     -0.198485     -0.173669
C     10.40319      7.29314      3.19606        -0.000768     -0.701585      0.530432
C     10.35913      6.23373      4.25547        -0.006307      0.520461     -0.404008
C      7.29314     10.40319      3.19606        -0.344404      0.023422      0.847266
C      6.23373     10.35913      4.25547         0.215670      0.016628     -0.140900
C      7.29314      0.08601      7.29314        -0.313095     -0.046289     -0.272551
C      6.23373      0.13007      6.23373         0.270892     -0.059578      0.299791
C      3.19606      0.08601      3.19606         0.451398     -0.052279      1.280686
C      4.25547      0.13007      4.25547        -0.113292     -0.032021     -0.462270
C      3.19606     10.40319      7.29314         0.714726      0.014671     -0.262714
C      4.25547     10.35913      6.23373        -0.139320      0.036213      0.110942
C      3.19606      7.29314     10.40319         0.606329     -1.266610      0.023538
C      4.25547      6.23373     10.35913        -0.702351      0.854155      0.053525
C      7.29314      7.29314      0.08601        -0.665995     -0.171527     -0.021792
C      6.23373      6.23373      0.13007         0.175419      0.263102     -0.008131
C      3.19606      3.19606      0.08601         0.243364      0.255023     -0.019062
C      4.25547      4.25547      0.13007        -0.053405     -0.036762      0.009895
C      7.29314      3.19606     10.40319        -0.373361      0.798222      0.014135
C      6.23373      4.25547     10.35913         0.891626     -0.151547      0.007948
O     10.43466      3.58206      8.50569        -0.049502      0.030399      0.319951
O     10.54374     17.39634      8.50569        -0.026037     -0.181600      0.604497
O     10.54374      3.58206     12.47271         0.055105      0.060907     -0.321177
O     10.43466     17.39634     12.47271        -0.023785     -0.122957     -0.582301
O      8.50569     10.43466      3.58206         0.384164     -0.023689     -0.010649
O      8.50569     10.54374     17.39634         0.474066      0.053085     -0.143040
O     12.47271     10.54374      3.58206        -0.295683      0.046805     -0.071131
O     12.47271     10.43466     17.39634        -0.858628      0.020674     -0.227174
O      3.58206      8.50569     10.43466         0.043997      0.926414      0.035849
O     17.39634      8.50569     10.54374        -0.036660      0.335676      0.078105
O      3.58206     12.47271     10.54374         0.062548     -0.423102      0.064000
O     17.39634     12.47271     10.43466        -0.171178     -0.780325      0.021520
O      3.58206     10.43466      8.50569        -0.058357     -0.067403      0.219558
O     17.39634     10.54374      8.50569        -0.135519      0.042263      0.459766
O      3.58206     10.54374     12.47271        -0.013628     -0.049748     -0.884878
O     17.39634     10.43466     12.47271        -0.197811      0.040538     -0.758829
O     10.43466      8.50569      3.58206         0.046578      0.688990      0.192235
O     10.54374      8.50569     17.39634         0.054962      0.434961     -0.078505
O     10.54374     12.47271      3.58206        -0.008517     -0.733808      0.227799
O     10.43466     12.47271     17.39634         0.050263     -0.861474     -0.276745
O      8.50569      3.58206     10.43466         0.492328      0.074654     -0.038134
O      8.50569     17.39634     10.54374         0.662929     -0.256014     -0.063276
O     12.47271      3.58206     10.54374        -0.484685      0.162663      0.039501
O     12.47271     17.39634     10.43466        -0.527097     -0.036783     -0.028581
O     11.90042     11.90042     19.56718        -0.303674     -0.312056      0.262573
O     19.56718     19.56718     19.56718         0.287595      0.270828      0.320551
O     19.56718     11.90042     11.90042         0.280136     -0.330185     -0.243977
O     11.90042     19.56718     11.90042        -0.231096      0.290433     -0.241349
O      9.45224      1.03696      9.45224        -0.074110      0.048152     -0.067116
O      1.03696      9.45224      9.45224         0.052649     -0.147817     -0.060046
O      1.03696      1.03696      1.03696         0.040349      0.035409      0.188909
O      9.45224      9.45224      1.03696        -0.039990     -0.093034      0.121961
Zr     10.48920      2.52580     10.48920        -0.008493     -0.075187     -0.024295
Zr     10.48920     18.45260     10.48920         0.066676      0.311879     -0.067386
Zr     10.48920     10.48920      2.52580        -0.096900      0.011505     -0.378627
Zr     10.48920     10.48920     18.45260        -0.141069     -0.154648      0.335675
Zr      2.52580     10.48920     10.48920        -0.355213      0.311892     -0.453741
Zr     18.45260     10.48920     10.48920         0.238897      0.038883     -0.263465
Pd      9.03470     10.26020     13.34172        -0.013596     -0.013866      0.006113
Pd     10.58197      9.71990     10.96396        -0.007524      0.000615     -0.049043
Pd     13.76819      8.55527     12.68037         0.003674      0.006923     -0.011585
Pd     10.99926     11.06818     15.02995        -0.003100     -0.020806     -0.001376
Pd     12.87803     11.20343     13.04791         0.021516      0.004196      0.017124
Pd     14.97794     10.94423     11.33655         0.006134      0.012453     -0.007506
Pd      6.65835      7.45132     12.34007        -0.006788      0.020685      0.003738
Pd      9.22463      7.27603     10.11906         0.010204      0.006923     -0.035436
Pd      9.27660      7.61331     12.79414         0.004883     -0.016410     -0.017456
Pd     11.70196      7.29645     11.46163         0.004354     -0.006472     -0.015283
Pd     11.40259      7.99510      8.85170         0.028190     -0.006050     -0.013962
Pd      7.26312     11.84160     11.95486         0.004798     -0.006225     -0.019649
Pd      8.93427     14.68551      9.35115         0.033014      0.022052      0.022039
Pd      8.41214     12.65950     14.32558        -0.007987     -0.008009      0.000148
Pd     13.58018     14.10412      8.53094         0.088949      0.027940     -0.053161
Pd     11.03221     13.35842      8.55152         0.089141      0.039910      0.042533
Pd     14.08274     11.53241      8.91920        -0.002816      0.027189     -0.004750
Pd      8.63443     14.10736     12.10473         0.010372     -0.007211      0.003244
Pd     12.23921     13.75032     14.02763        -0.002201      0.000667      0.004352
Pd     11.18947     14.41914     11.18453         0.027441     -0.012717      0.048930
Pd     14.05109     13.56908     12.16839        -0.007685      0.011712     -0.001940
Pd     12.31301     12.11972     10.69107         0.001663     -0.023190      0.005203
Pd     12.66455     12.34768      6.70660         0.011959      0.038806     -0.014850
Pd     13.66605      8.93944      7.91340         0.031424      0.008958     -0.003213
Pd      6.86729      8.47476      8.85676         0.008273      0.008909     -0.005127
Pd      5.52753      9.95482     11.23787         0.012062      0.026984     -0.049898
Pd      9.15398      9.74201      8.29499         0.022867     -0.025562     -0.006703
Pd      8.81195      7.23642      7.45855        -0.020590     -0.015859     -0.029158
Pd      9.54037     12.08789     10.43237         0.028290     -0.002592      0.018817
Pd     11.53693     10.71626      8.55613         0.020755      0.017269     -0.027481
Pd     11.25427      9.23579      6.42805         0.034167     -0.018126     -0.010238
Pd      9.90718     11.54704      6.37302         0.028866     -0.028603     -0.006968
Ir     11.35771      9.12589     13.34326        -0.007309      0.019334     -0.020121
Ir     13.07961      9.48043     10.38108         0.013086      0.011599     -0.017570
Ir     10.53568     12.34752     12.72588        -0.013583     -0.019960      0.002053
Ir      7.17161     10.99510      9.49654         0.058544      0.008758     -0.020894
Ir      8.44782     12.47819      8.18809         0.048254      0.008191     -0.008696
Ir      8.06953      9.31144     11.12282        -0.007180      0.018073     -0.010314
