152
# total energy = -1059.83700395 eVH     10.35389      5.87395      7.64558        -0.219593     -0.025776      1.142042
H     10.62451     15.10445      7.64558        -0.042495     -0.099991      0.913532
H     10.62451      5.87395     13.33282        -0.212987      0.095230     -0.795202
H     10.35389     15.10445     13.33282         0.060236     -0.279132     -0.902088
H      7.64558     10.35389      5.87395         0.902121     -0.062905      0.202966
H      7.64558     10.62451     15.10445         0.357870     -0.060488     -0.081651
H     13.33282     10.62451      5.87395        -0.828519      0.140769      0.197309
H     13.33282     10.35389     15.10445        -0.279098     -0.007423     -0.070610
H      5.87395      7.64558     10.35389         0.084882      0.402675     -0.055878
H     15.10445      7.64558     10.62451         0.060483      0.565432     -0.075011
H      5.87395     13.33282     10.62451        -0.010613     -0.993826      0.089000
H     15.10445     13.33282     10.35389        -0.054467     -0.323814     -0.002895
H      5.87395     10.35389      7.64558         0.273862      0.109152      0.427746
H     15.10445     10.62451      7.64558        -0.142403     -0.174535      0.636109
H      5.87395     10.62451     13.33282        -0.129646      0.524322     -0.567984
H     15.10445     10.35389     13.33282         0.266134     -0.635543     -0.776168
H     10.35389      7.64558      5.87395        -0.027632      0.512664      0.349672
H     10.62451      7.64558     15.10445         0.212149      0.803406     -0.049766
H     10.62451     13.33282      5.87395         0.096931     -0.525399      0.203006
H     10.35389     13.33282     15.10445         0.071515     -0.299244     -0.116415
H      7.64558      5.87395     10.35389         0.347770      0.077335     -0.036005
H      7.64558     15.10445     10.62451         0.370371     -0.099447      0.162395
H     13.33282      5.87395     10.62451        -0.306711      0.114032     -0.031828
H     13.33282     15.10445     10.35389        -0.649440     -0.122795      0.134925
H     12.45634     12.45634     19.01126         0.253720      0.270048     -0.230793
H     19.01126     19.01126     19.01126        -0.244519     -0.271359     -0.243750
H     19.01126     12.45634     12.45634        -0.253528      0.266368      0.237431
H     12.45634     19.01126     12.45634         0.286632     -0.236278      0.235654
C     10.35284      5.61067      6.59456         0.405831     -0.424780     -1.460971
C     10.62556     15.36773      6.59456        -0.160679      0.526891     -0.628148
C     10.62556      5.61067     14.38384         0.410303     -0.387098      0.869577
C     10.35284     15.36773     14.38384        -0.221417      0.207947      1.131305
C      6.59456     10.35284      5.61067        -1.347012      0.023144     -0.266061
C      6.59456     10.62556     15.36773        -0.677466      0.061818      0.372349
C     14.38384     10.62556      5.61067         1.217290     -0.126743     -0.580830
C     14.38384     10.35284     15.36773         0.423469     -0.107326      0.340203
C      5.61067      6.59456     10.35284        -0.323692     -0.542267      0.020118
C     15.36773      6.59456     10.62556         0.394526     -1.124599      0.031461
C      5.61067     14.38384     10.62556        -0.083115      1.161916     -0.191686
C     15.36773     14.38384     10.35284         0.478800      0.642439     -0.027432
C      5.61067     10.35284      6.59456        -0.343156     -0.120040     -0.752757
C     15.36773     10.62556      6.59456         0.421145      0.113513     -0.839165
C      5.61067     10.62556     14.38384        -0.400775     -0.201136      1.281040
C     15.36773     10.35284     14.38384         0.305061      0.178762      1.580332
C     10.35284      6.59456      5.61067        -0.055774     -0.777491     -0.707574
C     10.62556      6.59456     15.36773        -0.124769     -0.858730      0.337731
C     10.62556     14.38384      5.61067        -0.414357      0.451334     -0.682277
C     10.35284     14.38384     15.36773        -0.151682      0.604407      0.399770
C      6.59456      5.61067     10.35284        -0.435349     -0.336731      0.097983
C      6.59456     15.36773     10.62556        -0.472477      0.506549      0.039216
C     14.38384      5.61067     10.62556         0.440384     -0.418798      0.008173
C     14.38384     15.36773     10.35284         1.129874      0.557980     -0.064705
C     10.40319      3.19606      7.29314         0.005458      0.594249     -0.346800
C     10.35913      4.25547      6.23373        -0.022284     -0.471660      0.324004
C      0.08601      7.29314      7.29314        -0.017154     -0.332430     -0.484394
C      0.13007      6.23373      6.23373        -0.100133      0.802603      0.088181
C      0.08601      3.19606      3.19606        -0.001965      0.648494      0.274282
C      0.13007      4.25547      4.25547         0.013513     -0.292543     -0.447458
C     10.40319      7.29314      3.19606        -0.065852     -1.078788      0.514867
C     10.35913      6.23373      4.25547        -0.045069      0.404994     -0.166108
C      7.29314     10.40319      3.19606        -1.010154     -0.053205      0.173822
C      6.23373     10.35913      4.25547         0.334645      0.076834     -0.505014
C      7.29314      0.08601      7.29314        -0.380708      0.040003     -0.664472
C      6.23373      0.13007      6.23373         0.185779      0.137563      0.146954
C      3.19606      0.08601      3.19606         0.657235      0.022327      0.181690
C      4.25547      0.13007      4.25547        -0.163071     -0.039543     -0.347984
C      3.19606     10.40319      7.29314         0.381489     -0.022294     -0.861784
C      4.25547     10.35913      6.23373        -0.179152     -0.090898      0.098774
C      3.19606      7.29314     10.40319         0.584809     -0.370407     -0.003817
C      4.25547      6.23373     10.35913        -0.159617      0.162441      0.008290
C      7.29314      7.29314      0.08601        -0.390547     -0.359543     -0.014605
C      6.23373      6.23373      0.13007         0.241963      0.223807     -0.033058
C      3.19606      3.19606      0.08601         0.292363      0.481145     -0.021837
C      4.25547      4.25547      0.13007        -0.397652     -0.209131     -0.030072
C      7.29314      3.19606     10.40319        -0.281729      0.587038     -0.017827
C      6.23373      4.25547     10.35913        -0.009776     -0.179534      0.032303
O     10.43466      3.58206      8.50569        -0.034021      0.116546      0.352044
O     10.54374     17.39634      8.50569         0.080964     -0.144800      0.590829
O     10.54374      3.58206     12.47271         0.024368      0.109485     -0.384160
O     10.43466     17.39634     12.47271         0.088811     -0.060282     -0.351931
O      8.50569     10.43466      3.58206         0.727681     -0.074721      0.058302
O      8.50569     10.54374     17.39634         0.399891      0.044245     -0.049530
O     12.47271     10.54374      3.58206        -0.652562      0.100102      0.200915
O     12.47271     10.43466     17.39634        -0.306060     -0.000720      0.003408
O      3.58206      8.50569     10.43466         0.058923      0.456710     -0.055179
O     17.39634      8.50569     10.54374        -0.058861      0.477390      0.050585
O      3.58206     12.47271     10.54374         0.105078     -0.584092      0.008879
O     17.39634     12.47271     10.43466        -0.161714     -0.723020     -0.067421
O      3.58206     10.43466      8.50569         0.226056     -0.063569      0.791338
O     17.39634     10.54374      8.50569        -0.158517      0.085139      0.681806
O      3.58206     10.54374     12.47271         0.009493     -0.004247     -0.280419
O     17.39634     10.43466     12.47271         0.041845     -0.013794     -0.208964
O     10.43466      8.50569      3.58206        -0.130021      0.615255     -0.048715
O     10.54374      8.50569     17.39634         0.051882      0.492361     -0.116142
O     10.54374     12.47271      3.58206         0.102037     -0.632679      0.140614
O     10.43466     12.47271     17.39634        -0.062737     -0.615771     -0.215980
O      8.50569      3.58206     10.43466         0.396914      0.034352     -0.027776
O      8.50569     17.39634     10.54374         0.627396     -0.143882      0.051520
O     12.47271      3.58206     10.54374        -0.516806      0.123696      0.035666
O     12.47271     17.39634     10.43466        -0.616415     -0.154446      0.020533
O     11.90042     11.90042     19.56718        -0.278540     -0.313937      0.241019
O     19.56718     19.56718     19.56718         0.297896      0.321968      0.293765
O     19.56718     11.90042     11.90042         0.289058     -0.324238     -0.233057
O     11.90042     19.56718     11.90042        -0.318885      0.234734     -0.206152
O      9.45224      1.03696      9.45224        -0.082622      0.072431     -0.075336
O      1.03696      9.45224      9.45224         0.086912     -0.110891     -0.048749
O      1.03696      1.03696      1.03696         0.066691      0.040521      0.111682
O      9.45224      9.45224      1.03696        -0.046037     -0.118102      0.134713
Zr     10.48920      2.52580     10.48920         0.044301     -0.067204      0.046466
Zr     10.48920     18.45260     10.48920        -0.171686      0.257823     -0.317112
Zr     10.48920     10.48920      2.52580         0.108818      0.325224     -0.361203
Zr     10.48920     10.48920     18.45260        -0.060608     -0.168903      0.175594
Zr      2.52580     10.48920     10.48920        -0.232142      0.128971      0.208260
Zr     18.45260     10.48920     10.48920         0.231865     -0.110051      0.063408
Pd      9.34552     14.14788      9.50464         0.034647      0.037445     -0.041505
Pd      8.66187     13.66557     13.04950        -0.015134      0.018702     -0.060247
Pd     11.94977     14.44074      8.80380         0.051307     -0.012701     -0.041631
Pd     12.83729     12.79308     10.56216        -0.041312      0.021591      0.015424
Pd     12.23373      7.11662     12.68993        -0.045300     -0.019234     -0.063295
Pd     11.30189     14.73100     11.62430        -0.022537      0.045871     -0.052676
Pd     10.18165     12.38908     11.24687        -0.023772      0.031777     -0.065675
Pd     13.44798     12.12589      7.95670         0.013849      0.023165     -0.001235
Pd     11.42045     11.53119      6.14661         0.029965      0.006750     -0.015951
Pd      7.81444      8.58536      7.61972        -0.003597      0.007123     -0.033140
Pd      8.75673     11.73902      6.96036        -0.022661     -0.023514     -0.047374
Pd     10.29732      9.45637      8.20380         0.008517      0.006759     -0.044375
Pd      8.50389     14.42766      6.98302         0.013464     -0.012494     -0.041493
Pd     12.30307      9.02835      6.60358         0.052654     -0.003022     -0.011170
Pd      9.69115      9.55493      5.62170         0.031832      0.034700     -0.052810
Pd      6.84637      9.50428     12.16822         0.020061     -0.040626     -0.003572
Pd     12.23756      6.63276      7.82290        -0.007370      0.029633      0.023806
Pd      5.97496     10.54311      9.72552        -0.005963     -0.037809      0.009261
Pd      7.52516      7.07767     12.91985         0.031320      0.000733      0.173884
Ir     11.89954      9.70133     13.05917        -0.014428     -0.011441      0.016159
Ir     13.63917      8.93333     11.41379        -0.020135      0.032689      0.012381
Ir      9.46283      8.74109     13.72713        -0.029753      0.027379      0.046822
Ir     10.60091     10.96026     14.77466        -0.025703     -0.011323      0.038931
Ir      7.34474     12.07362     11.40752        -0.025062     -0.014492     -0.010352
Ir     14.76289     10.75993      9.99236        -0.033894      0.026827      0.027525
Ir     12.23987     10.42833      9.67327        -0.009131     -0.016975     -0.027750
Ir      8.77227     11.00080     13.06675        -0.030860      0.049740     -0.044710
Ir     10.20126      9.78316     11.29128        -0.009108      0.018759     -0.047863
Ir     13.86861     11.32064     12.29467        -0.032166     -0.003221      0.027294
Ir     11.84502     12.33045     13.12491        -0.061803     -0.023192      0.007615
Ir      8.55365     11.03935      9.46628         0.017012     -0.009288     -0.019118
Ir     11.64246      7.92900     10.03292        -0.001699      0.035646      0.015278
Ir      7.18079     12.92004      8.70619         0.001105      0.050485     -0.009050
Ir      9.51723      6.98032      9.04938         0.010764      0.001007     -0.003190
Ir      8.12332      8.69294     10.17484        -0.032304      0.085364     -0.019099
Ir     10.77891     12.06904      8.61167        -0.015438      0.014278     -0.042064
Ir      9.71843      7.29295     11.59554        -0.081374      0.045652      0.023169
Ir     13.71579      8.64368      8.74243        -0.015013      0.023691      0.046950
