152
# total energy = -1110.36271912 eVH     10.35389      5.87395      7.64558        -0.343175     -0.159281      1.031991
H     10.62451     15.10445      7.64558         0.381067      0.090030      0.943784
H     10.62451      5.87395     13.33282        -0.306469     -0.712942     -1.409923
H     10.35389     15.10445     13.33282        -0.639144      0.376673     -0.321234
H      7.64558     10.35389      5.87395         0.545389     -0.541944     -0.082709
H      7.64558     10.62451     15.10445         0.356017     -0.240939      0.038881
H     13.33282     10.62451      5.87395        -0.524676      0.612012     -0.015825
H     13.33282     10.35389     15.10445        -0.532008      0.417031      0.163916
H      5.87395      7.64558     10.35389         0.140949      0.495449      0.034965
H     15.10445      7.64558     10.62451         0.431358      0.852969      0.250862
H      5.87395     13.33282     10.62451        -0.229190     -0.443754      0.363940
H     15.10445     13.33282     10.35389         0.031422     -0.311450     -0.392319
H      5.87395     10.35389      7.64558        -0.071325     -0.352722      1.443701
H     15.10445     10.62451      7.64558         0.202190      0.411016      1.256903
H      5.87395     10.62451     13.33282        -0.144898     -0.335571     -1.123639
H     15.10445     10.35389     13.33282         0.537612      0.885972     -1.515441
H     10.35389      7.64558      5.87395        -0.533829      0.496333     -0.196862
H     10.62451      7.64558     15.10445        -0.136494      0.545176      0.198435
H     10.62451     13.33282      5.87395         0.906728     -1.405374     -0.331155
H     10.35389     13.33282     15.10445         0.285826     -0.546789     -0.072827
H      7.64558      5.87395     10.35389         0.722319      0.173841     -0.140907
H      7.64558     15.10445     10.62451         1.969703      0.817576      0.187247
H     13.33282      5.87395     10.62451        -2.697725     -0.997391     -0.429478
H     13.33282     15.10445     10.35389        -0.870322     -0.041531     -0.254385
H     12.45634     12.45634     19.01126         0.271808      0.257825     -0.227524
H     19.01126     19.01126     19.01126        -0.266747     -0.254516     -0.238102
H     19.01126     12.45634     12.45634        -0.282778      0.281129      0.186973
H     12.45634     19.01126     12.45634         0.256115     -0.251856      0.235770
C     10.35284      5.61067      6.59456         0.097792     -0.500198     -1.255056
C     10.62556     15.36773      6.59456         0.164905      0.770865     -0.854972
C     10.62556      5.61067     14.38384         0.172015     -0.324497      1.817560
C     10.35284     15.36773     14.38384         0.121152      0.400765      1.811325
C      6.59456     10.35284      5.61067        -1.118692     -0.111220     -0.846107
C      6.59456     10.62556     15.36773        -0.676338     -0.106427      0.729619
C     14.38384     10.62556      5.61067         0.886104     -0.116291     -1.000017
C     14.38384     10.35284     15.36773         1.209679      0.165024      1.106891
C      5.61067      6.59456     10.35284        -0.689343     -0.802736     -0.162241
C     15.36773      6.59456     10.62556         1.947298     -0.192277     -0.178724
C      5.61067     14.38384     10.62556        -1.575929     -0.009240     -0.113721
C     15.36773     14.38384     10.35284         0.485949      0.047994      0.032256
C      5.61067     10.35284      6.59456        -0.267950      0.206782     -1.358664
C     15.36773     10.62556      6.59456         0.275356     -0.199141     -1.000290
C      5.61067     10.62556     14.38384        -0.278389      0.381076      1.410874
C     15.36773     10.35284     14.38384         0.071654     -0.430698      1.906598
C     10.35284      6.59456      5.61067        -0.200841     -0.923818     -0.692076
C     10.62556      6.59456     15.36773        -0.098754     -0.809230      1.044300
C     10.62556     14.38384      5.61067        -0.484214      2.050927     -0.783465
C     10.35284     14.38384     15.36773        -0.295536      1.475567      0.468660
C      6.59456      5.61067     10.35284        -0.959248     -0.414261      0.076673
C      6.59456     15.36773     10.62556        -1.342359      0.346025     -0.334657
C     14.38384      5.61067     10.62556         1.305962     -1.149943      0.149003
C     14.38384     15.36773     10.35284         0.401657      0.318056      0.055804
C     10.40319      3.19606      7.29314         0.003026      0.311929     -0.097698
C     10.35913      4.25547      6.23373         0.137048     -0.508933      0.029429
C      0.08601      7.29314      7.29314        -0.054218     -0.308243     -0.431845
C      0.13007      6.23373      6.23373        -0.127119      0.722239      0.044848
C      0.08601      3.19606      3.19606        -0.110071      1.624503      0.173677
C      0.13007      4.25547      4.25547        -0.087777     -0.410165     -1.247448
C     10.40319      7.29314      3.19606         0.016791     -0.424809      0.131887
C     10.35913      6.23373      4.25547         0.260408      0.078193     -0.487564
C      7.29314     10.40319      3.19606        -1.663797      0.005252      0.327782
C      6.23373     10.35913      4.25547         0.654075      0.078133     -0.612149
C      7.29314      0.08601      7.29314        -0.397606     -0.009742     -0.295873
C      6.23373      0.13007      6.23373         0.627075     -0.053281      0.274685
C      3.19606      0.08601      3.19606         0.663367     -0.015719      0.188524
C      4.25547      0.13007      4.25547        -0.373120     -0.062210     -0.489669
C      3.19606     10.40319      7.29314         0.381817      0.018366     -0.320276
C      4.25547     10.35913      6.23373        -0.730418      0.059395      0.375278
C      3.19606      7.29314     10.40319         0.305807     -0.218125     -0.005976
C      4.25547      6.23373     10.35913         0.056057      0.648332      0.094094
C      7.29314      7.29314      0.08601        -0.719441     -0.594854     -0.015538
C      6.23373      6.23373      0.13007         0.807600      1.145587     -0.077969
C      3.19606      3.19606      0.08601         0.806610      0.487325      0.013544
C      4.25547      4.25547      0.13007        -0.324639     -1.711339     -0.118612
C      7.29314      3.19606     10.40319        -0.333177      0.279192     -0.003343
C      6.23373      4.25547     10.35913         0.522336     -0.036248      0.229607
O     10.43466      3.58206      8.50569        -0.047355      0.180572      0.257682
O     10.54374     17.39634      8.50569         0.041108     -0.231593      0.485848
O     10.54374      3.58206     12.47271         0.085753     -0.057678     -0.042977
O     10.43466     17.39634     12.47271        -0.022903     -0.139826     -0.281395
O      8.50569     10.43466      3.58206         0.984306      0.181595      0.389719
O      8.50569     10.54374     17.39634         0.565186      0.083529     -0.226635
O     12.47271     10.54374      3.58206        -0.430797     -0.038466      0.189460
O     12.47271     10.43466     17.39634        -0.526416     -0.070904     -0.200457
O      3.58206      8.50569     10.43466         0.178415      0.440216     -0.031154
O     17.39634      8.50569     10.54374        -0.228077      0.714628      0.041822
O      3.58206     12.47271     10.54374         0.158829     -0.664676      0.023981
O     17.39634     12.47271     10.43466        -0.185274     -0.484556     -0.013432
O      3.58206     10.43466      8.50569         0.220569     -0.058767      0.400378
O     17.39634     10.54374      8.50569        -0.169193      0.036862      0.409497
O      3.58206     10.54374     12.47271         0.142526      0.021240     -0.307917
O     17.39634     10.43466     12.47271         0.067076     -0.050227     -0.089752
O     10.43466      8.50569      3.58206        -0.001770      0.277457      0.178271
O     10.54374      8.50569     17.39634         0.071072      0.439917     -0.182996
O     10.54374     12.47271      3.58206        -0.222853     -0.965981      0.347352
O     10.43466     12.47271     17.39634        -0.085057     -0.448858     -0.244745
O      8.50569      3.58206     10.43466         0.499005      0.195157     -0.013470
O      8.50569     17.39634     10.54374         0.657507     -0.193257      0.022825
O     12.47271      3.58206     10.54374        -0.734858      0.277616      0.036594
O     12.47271     17.39634     10.43466        -0.444504     -0.199163     -0.044448
O     11.90042     11.90042     19.56718        -0.345085     -0.307405      0.258565
O     19.56718     19.56718     19.56718         0.325943      0.310636      0.281333
O     19.56718     11.90042     11.90042         0.278605     -0.278470     -0.141369
O     11.90042     19.56718     11.90042        -0.307389      0.288331     -0.233939
O      9.45224      1.03696      9.45224        -0.056915      0.070684     -0.048831
O      1.03696      9.45224      9.45224         0.035037     -0.072622     -0.073480
O      1.03696      1.03696      1.03696         0.056872      0.138133      0.105332
O      9.45224      9.45224      1.03696        -0.130784     -0.088800      0.104818
Zr     10.48920      2.52580     10.48920         0.142790     -0.162865     -0.161001
Zr     10.48920     18.45260     10.48920        -0.091540      0.179340     -0.040834
Zr     10.48920     10.48920      2.52580         0.325782     -0.310006     -0.198176
Zr     10.48920     10.48920     18.45260         0.002277     -0.083571      0.210180
Zr      2.52580     10.48920     10.48920        -0.063809      0.162191     -0.050812
Zr     18.45260     10.48920     10.48920         0.135281     -0.121209     -0.246742
Ir     12.06246     12.49143     10.46334        -0.022255      0.007567      0.017262
Ir     11.15030      7.41561     10.32856         0.038572      0.007978     -0.007050
Ir      8.79887      7.39934     11.59015         0.027281     -0.012921     -0.013402
Ir      7.48485     11.66739      7.65047        -0.002907     -0.016464      0.006555
Ir     11.59835     12.09617      7.12388         0.007847      0.009697      0.011542
Ir     13.73644      8.97129      7.56608         0.011447      0.011593     -0.012308
Ir     12.50850     13.95413      8.42037        -0.014829     -0.014156      0.000663
Ir      9.71718     11.26745      5.57108        -0.005810      0.006893     -0.010119
Ir      9.08737     13.47170      7.07489         0.001498      0.009845     -0.001724
Ir      9.29341      9.66373      7.53899        -0.007958     -0.002873     -0.004603
Ir     13.25121      7.04187     11.95000         0.001516      0.011370      0.017491
Ir     13.53490      7.02209      9.12171         0.037303      0.015390      0.002282
Ir     11.01131      7.61091     12.86905         0.028650     -0.012100     -0.022517
Ir     13.61766     11.55580      8.75923         0.007764      0.013193     -0.016270
Ir     11.50644      9.66378      6.23900         0.004531     -0.015827     -0.001241
Ir      7.14274      9.20875      8.94981        -0.001536     -0.022108     -0.014124
Ir     14.05747     11.41436     11.66702         0.004933      0.023676     -0.005835
Ir     11.65186      9.87500      8.90665        -0.019765     -0.004396     -0.012035
Ir      9.42542      9.53813     10.25785         0.009911     -0.008553     -0.014066
Ir     13.85309      9.38831     10.19274         0.023651     -0.004878     -0.006506
Ir     13.80174      9.14927     12.92214         0.008978     -0.008629     -0.010435
Ir     11.68271      9.76656     11.57962        -0.011926     -0.003470     -0.015162
Ir      9.91670     11.76697      8.98021         0.000321     -0.036759      0.002985
Ir      9.02096      7.44378      8.85901         0.040000     -0.000044     -0.023382
Ir     11.49055      7.59963      7.80087         0.048828     -0.021756     -0.022591
Ir      9.24204      9.51480     13.02422         0.006740     -0.015300     -0.006481
Ir      7.53285     13.93353      8.98731        -0.006487     -0.007642      0.009100
Ir     10.91455     14.13615     11.94358        -0.003147     -0.031755     -0.002121
Ir     10.13134     14.18269      9.51981         0.003523     -0.006216      0.008408
Ir      9.80521     11.71719     11.72864         0.009560     -0.021472     -0.007834
Ir      7.59449     11.61427     10.20776        -0.012989     -0.027253      0.006608
Ir      8.38262     13.78071     11.58403        -0.014544     -0.009478      0.002412
Ir      7.53174     11.61763     12.82926        -0.006255     -0.023351      0.006599
Ir      9.76528     11.64686     14.34508        -0.002326     -0.010798      0.003769
Ir     13.50870     13.87479     12.19466        -0.012038     -0.002099     -0.000728
Ir     11.99765     12.06615     13.09089         0.006440      0.000968     -0.024293
Ir     11.56675      9.82717     14.21556        -0.000657     -0.010975     -0.006839
Ir      7.13665      9.42395     11.50636         0.004483     -0.030958      0.002893
