152
# total energy = -1023.91813065 eVH     10.35389      5.87395      7.64558         0.522528      0.074981      0.785668
H     10.62451     15.10445      7.64558        -0.009642     -0.156700      0.578863
H     10.62451      5.87395     13.33282         0.138091      0.160576     -0.647566
H     10.35389     15.10445     13.33282        -0.311369     -0.060215     -0.728716
H      7.64558     10.35389      5.87395         0.313654     -0.015402      0.187414
H      7.64558     10.62451     15.10445         1.042234     -0.381719     -0.002235
H     13.33282     10.62451      5.87395        -0.752934      0.003073      0.178589
H     13.33282     10.35389     15.10445        -0.781036     -0.296575      0.105042
H      5.87395      7.64558     10.35389         0.207299      0.757551     -0.075749
H     15.10445      7.64558     10.62451        -0.147014      0.399049     -0.045093
H      5.87395     13.33282     10.62451         0.180027     -0.490640     -0.077833
H     15.10445     13.33282     10.35389        -0.118091     -1.019867      0.069926
H      5.87395     10.35389      7.64558         0.149771      0.102222      0.447018
H     15.10445     10.62451      7.64558         0.072659      0.114805      1.122716
H      5.87395     10.62451     13.33282         0.106107     -0.033513     -0.372833
H     15.10445     10.35389     13.33282        -0.094369     -0.111107     -0.617428
H     10.35389      7.64558      5.87395         0.011931      0.863886      0.227033
H     10.62451      7.64558     15.10445         0.015517      0.292226     -0.174008
H     10.62451     13.33282      5.87395        -0.050602     -0.556817      0.239242
H     10.35389     13.33282     15.10445        -0.557170     -0.773300     -0.052091
H      7.64558      5.87395     10.35389         0.461047      0.115946      0.047028
H      7.64558     15.10445     10.62451         0.784910     -0.288654      0.075828
H     13.33282      5.87395     10.62451        -0.485149      0.168794     -0.065594
H     13.33282     15.10445     10.35389        -0.628200     -0.062478      0.182095
H     12.45634     12.45634     19.01126         0.241718      0.280538     -0.228405
H     19.01126     19.01126     19.01126        -0.253777     -0.238057     -0.252417
H     19.01126     12.45634     12.45634        -0.249686      0.273071      0.226186
H     12.45634     19.01126     12.45634         0.228164     -0.263136      0.243172
C     10.35284      5.61067      6.59456        -0.202866     -0.554786      0.048949
C     10.62556     15.36773      6.59456         0.020993      0.422342     -0.787313
C     10.62556      5.61067     14.38384        -0.056110     -0.107101      0.764644
C     10.35284     15.36773     14.38384         0.082638      0.722746      0.296378
C      6.59456     10.35284      5.61067        -0.382349     -0.029549     -0.237484
C      6.59456     10.62556     15.36773        -1.091987      0.439085      0.402877
C     14.38384     10.62556      5.61067         0.391932      0.281779     -0.594094
C     14.38384     10.35284     15.36773         0.957809     -0.058677      0.397092
C      5.61067      6.59456     10.35284        -0.366499     -0.499110      0.306841
C     15.36773      6.59456     10.62556         0.173307     -0.510371      0.032730
C      5.61067     14.38384     10.62556        -0.117160      0.489676     -0.003321
C     15.36773     14.38384     10.35284         0.320121     -0.119805     -0.165711
C      5.61067     10.35284      6.59456        -0.275234     -0.042083     -0.804501
C     15.36773     10.62556      6.59456         0.690781     -0.325231     -1.220928
C      5.61067     10.62556     14.38384        -0.561166     -0.022292      0.163166
C     15.36773     10.35284     14.38384         0.651639     -0.121366      1.193051
C     10.35284      6.59456      5.61067        -0.278044     -0.478437     -0.753636
C     10.62556      6.59456     15.36773         0.047066     -0.282426      0.129021
C     10.62556     14.38384      5.61067         0.148557      1.096416     -0.417132
C     10.35284     14.38384     15.36773         0.162499      0.271808      0.686795
C      6.59456      5.61067     10.35284        -0.305849     -0.796239      0.056126
C      6.59456     15.36773     10.62556        -1.314039      0.347756      0.043363
C     14.38384      5.61067     10.62556         0.707530     -0.241952      0.016922
C     14.38384     15.36773     10.35284        -0.518242      0.679023     -0.327263
C     10.40319      3.19606      7.29314         0.004853      0.880783     -0.385812
C     10.35913      4.25547      6.23373         0.037334     -0.506754      0.567064
C      0.08601      7.29314      7.29314        -0.005645     -0.450293     -0.405145
C      0.13007      6.23373      6.23373        -0.009529      0.033642      0.101410
C      0.08601      3.19606      3.19606        -0.018398      0.885877      0.180715
C      0.13007      4.25547      4.25547        -0.068755     -0.194187     -0.245228
C     10.40319      7.29314      3.19606        -0.003194     -0.916832      0.475679
C     10.35913      6.23373      4.25547         0.025806      0.447369     -0.636832
C      7.29314     10.40319      3.19606        -0.421942      0.039362      0.845571
C      6.23373     10.35913      4.25547         0.240135      0.080530     -0.111632
C      7.29314      0.08601      7.29314        -0.434839     -0.024242     -0.278882
C      6.23373      0.13007      6.23373         0.449952     -0.065802      0.491416
C      3.19606      0.08601      3.19606         0.731614     -0.017278      0.411162
C      4.25547      0.13007      4.25547        -0.104758     -0.054593     -0.437342
C      3.19606     10.40319      7.29314         0.717494     -0.004860     -0.678359
C      4.25547     10.35913      6.23373        -0.234994      0.097890      0.206522
C      3.19606      7.29314     10.40319         0.501769     -1.282340     -0.032062
C      4.25547      6.23373     10.35913        -0.449181      0.837558      0.048766
C      7.29314      7.29314      0.08601        -0.564448     -0.238878     -0.014749
C      6.23373      6.23373      0.13007         0.172059      0.138421     -0.015906
C      3.19606      3.19606      0.08601         0.241570      0.313203     -0.023957
C      4.25547      4.25547      0.13007        -0.067319     -0.046569      0.017809
C      7.29314      3.19606     10.40319        -0.354317      0.710028      0.015365
C      6.23373      4.25547     10.35913         1.097273      0.069263      0.009029
O     10.43466      3.58206      8.50569        -0.036148      0.037451      0.426314
O     10.54374     17.39634      8.50569        -0.022777     -0.105936      0.481410
O     10.54374      3.58206     12.47271         0.051003     -0.006015     -0.221327
O     10.43466     17.39634     12.47271        -0.046911     -0.076229     -0.541139
O      8.50569     10.43466      3.58206         0.386983     -0.016325     -0.015888
O      8.50569     10.54374     17.39634         0.540313      0.028583     -0.156352
O     12.47271     10.54374      3.58206        -0.647588     -0.023730      0.158620
O     12.47271     10.43466     17.39634        -0.658988     -0.025230     -0.089877
O      3.58206      8.50569     10.43466         0.170515      1.105277      0.002399
O     17.39634      8.50569     10.54374        -0.038585      0.366608      0.073436
O      3.58206     12.47271     10.54374         0.080421     -0.490836      0.031878
O     17.39634     12.47271     10.43466        -0.165500     -0.711502      0.012770
O      3.58206     10.43466      8.50569        -0.013056     -0.067068      0.537841
O     17.39634     10.54374      8.50569        -0.115625      0.041834      0.406669
O      3.58206     10.54374     12.47271         0.042320      0.009550     -0.421395
O     17.39634     10.43466     12.47271        -0.222211      0.025073     -0.732624
O     10.43466      8.50569      3.58206         0.082938      0.813289      0.195813
O     10.54374      8.50569     17.39634         0.071686      0.607896     -0.127024
O     10.54374     12.47271      3.58206        -0.035385     -0.878677      0.240950
O     10.43466     12.47271     17.39634         0.011231     -0.947695     -0.217518
O      8.50569      3.58206     10.43466         0.513792      0.092651     -0.022143
O      8.50569     17.39634     10.54374         0.636433     -0.245093     -0.036181
O     12.47271      3.58206     10.54374        -0.447025      0.133797      0.052404
O     12.47271     17.39634     10.43466        -0.417759      0.027979     -0.017918
O     11.90042     11.90042     19.56718        -0.265697     -0.332700      0.250050
O     19.56718     19.56718     19.56718         0.286719      0.270799      0.300745
O     19.56718     11.90042     11.90042         0.276887     -0.320942     -0.212265
O     11.90042     19.56718     11.90042        -0.273239      0.288330     -0.261738
O      9.45224      1.03696      9.45224        -0.082816      0.050560     -0.055457
O      1.03696      9.45224      9.45224         0.058923     -0.161290     -0.094153
O      1.03696      1.03696      1.03696         0.016279      0.068467      0.190806
O      9.45224      9.45224      1.03696        -0.055263     -0.084752      0.134536
Zr     10.48920      2.52580     10.48920        -0.027610     -0.080006     -0.125245
Zr     10.48920     18.45260     10.48920         0.096278      0.266347      0.007557
Zr     10.48920     10.48920      2.52580         0.006530     -0.100346     -0.508980
Zr     10.48920     10.48920     18.45260        -0.211401      0.021762      0.446756
Zr      2.52580     10.48920     10.48920        -0.399402      0.269982      0.105048
Zr     18.45260     10.48920     10.48920         0.208786      0.064139     -0.293908
Pd      8.63585      9.87957     13.38296        -0.023683      0.137299      0.018629
Pd     10.52625      9.55152     10.34999         0.070892     -0.039878     -0.381354
Pd     13.49516      8.74206     12.54374        -0.002307     -0.001730     -0.028494
Pd     10.79935     10.67668     15.14177        -0.134948     -0.003671     -0.188324
Pd     12.98132     11.30024     13.36403         0.179479      0.017484      0.081359
Pd     14.97801     10.72913     11.29480         0.027582      0.140360     -0.025068
Pd      6.63627      7.90960     12.48794         0.104753     -0.025235      0.146362
Pd      9.29324      7.21106      9.68033        -0.022329      0.037496     -0.079272
Pd      9.33590      7.47218     12.42363         0.175093     -0.083356      0.036594
Pd     11.71761      7.31325     11.20006        -0.150672     -0.214165     -0.129612
Pd     11.71641      7.78194      8.51329        -0.064870      0.149467      0.028558
Pd      7.30253     11.73990     11.64962        -0.092439     -0.150290     -0.108449
Pd      9.27586     14.57561      9.56460         0.066437     -0.151362     -0.170937
Pd      8.04957     12.40876     14.25818         0.189968     -0.109871     -0.067222
Pd     14.16327     14.20103      8.32389        -0.003770      0.028329      0.029408
Pd     11.64394     13.48473      8.87039        -0.082301     -0.099453      0.083406
Pd     14.11672     11.63392      8.93012        -0.128415     -0.021713     -0.015694
Pd      8.76367     13.90626     12.24389        -0.065989      0.129386     -0.107506
Pd     12.16656     13.73480     14.09942         0.034128      0.067215     -0.067288
Pd     11.38125     14.10294     11.49394         0.091184      0.028455     -0.084913
Pd     13.99819     13.51933     12.18164         0.155428     -0.051816     -0.056638
Pd     12.36391     11.70817     10.86253         0.102865     -0.087765      0.082621
Pd     12.76783     12.59879      6.66306         0.108634      0.095325     -0.096115
Pd     13.97707      8.90971      7.68039        -0.113747     -0.026154      0.030102
Pd      7.00532      8.41865      8.61439         0.006479      0.056902     -0.017089
Pd      5.63725     10.08539     10.29725         0.119062     -0.048351     -0.001745
Pd      9.42184      9.32615      7.70604        -0.006712      0.006721      0.058965
Pd      8.46759      6.86224      7.07336         0.099133      0.032133     -0.010446
Pd      9.74352     12.01576     10.54564        -0.259683     -0.112115     -0.522510
Pd     11.68030     10.70736      8.20069        -0.156456     -0.039514      0.127275
Pd     11.71977      8.99872      6.08645        -0.043864      0.093036      0.109298
Pd     10.24197     11.27995      6.01866        -0.046136      0.081498     -0.156783
Ir     11.08118      9.53470     12.78015        -0.098045     -0.212237      0.341304
Ir     13.16316      9.35818     10.04898         0.067034      0.038220      0.081508
Ir     10.44285     11.98181     12.91777         0.115058      0.212943      0.441450
Ir      7.80495     10.91652      9.09501         0.123462      0.094299      0.163644
Ir      9.30333     12.42459      8.05454         0.079339     -0.182319      0.295601
Ir      8.10968      9.25142     10.94375        -0.179177      0.147385     -0.452520
