152
# total energy = -1022.77068457 eVH     10.35389      5.87395      7.64558         0.472383      0.031289      0.923261
H     10.62451     15.10445      7.64558        -0.030012      0.040500      0.754158
H     10.62451      5.87395     13.33282         0.140808      0.113972     -0.600778
H     10.35389     15.10445     13.33282        -0.270777     -0.074253     -0.560395
H      7.64558     10.35389      5.87395         0.338676     -0.043196      0.192954
H      7.64558     10.62451     15.10445         0.616036     -0.181124     -0.143427
H     13.33282     10.62451      5.87395        -0.895667     -0.352582      0.155745
H     13.33282     10.35389     15.10445        -0.473239     -0.089627     -0.060093
H      5.87395      7.64558     10.35389         0.118272      1.148037     -0.129486
H     15.10445      7.64558     10.62451        -0.170167      0.399564     -0.083786
H      5.87395     13.33282     10.62451         0.142453     -0.402626     -0.070384
H     15.10445     13.33282     10.35389        -0.078602     -0.962893     -0.224818
H      5.87395     10.35389      7.64558         0.126096      0.030685      0.473480
H     15.10445     10.62451      7.64558         0.141787     -0.231028      0.773075
H      5.87395     10.62451     13.33282         0.273916     -0.027751     -0.397921
H     15.10445     10.35389     13.33282        -0.145202      0.014811     -0.623393
H     10.35389      7.64558      5.87395         0.087371      0.824735      0.120420
H     10.62451      7.64558     15.10445         0.024867      0.591668     -0.144217
H     10.62451     13.33282      5.87395         0.096460     -0.609743      0.178189
H     10.35389     13.33282     15.10445        -0.247108     -0.887280     -0.108892
H      7.64558      5.87395     10.35389         0.530408      0.029595     -0.147945
H      7.64558     15.10445     10.62451         0.914418     -0.199068      0.321124
H     13.33282      5.87395     10.62451        -0.432332      0.188572     -0.058850
H     13.33282     15.10445     10.35389        -1.014938     -0.089740      0.258624
H     12.45634     12.45634     19.01126         0.267897      0.257423     -0.223549
H     19.01126     19.01126     19.01126        -0.247958     -0.235394     -0.261963
H     19.01126     12.45634     12.45634        -0.242649      0.270074      0.238695
H     12.45634     19.01126     12.45634         0.209394     -0.284419      0.253698
C     10.35284      5.61067      6.59456        -0.131122     -0.420675     -0.457805
C     10.62556     15.36773      6.59456         0.015965      0.344477     -1.123363
C     10.62556      5.61067     14.38384        -0.022351     -0.233450      0.719275
C     10.35284     15.36773     14.38384         0.198910      0.758749      0.112903
C      6.59456     10.35284      5.61067        -0.439673     -0.043996     -0.192823
C      6.59456     10.62556     15.36773        -0.785656      0.147105      0.354657
C     14.38384     10.62556      5.61067         0.716776      0.280986     -0.354093
C     14.38384     10.35284     15.36773         0.740087     -0.125615      0.427702
C      5.61067      6.59456     10.35284        -0.427055     -0.800312      0.252078
C     15.36773      6.59456     10.62556         0.200932     -0.472471      0.044744
C      5.61067     14.38384     10.62556        -0.261050      0.379858     -0.019343
C     15.36773     14.38384     10.35284         0.390252      0.169572      0.221256
C      5.61067     10.35284      6.59456        -0.311268     -0.009528     -0.890236
C     15.36773     10.62556      6.59456         0.559943     -0.138043     -1.233812
C      5.61067     10.62556     14.38384        -0.474448      0.007656      0.946982
C     15.36773     10.35284     14.38384         0.535029     -0.174831      1.255015
C     10.35284      6.59456      5.61067        -0.033672     -0.916034     -0.680020
C     10.62556      6.59456     15.36773         0.047480     -0.710061      0.313976
C     10.62556     14.38384      5.61067         0.030867      1.281254     -0.707797
C     10.35284     14.38384     15.36773         0.087143      0.598578      0.662591
C      6.59456      5.61067     10.35284        -0.245527     -0.903689      0.129349
C      6.59456     15.36773     10.62556        -1.744002      0.497701      0.033267
C     14.38384      5.61067     10.62556         0.572006     -0.223146     -0.007500
C     14.38384     15.36773     10.35284         0.237258      0.534224     -0.231361
C     10.40319      3.19606      7.29314         0.016887      0.924505     -0.249359
C     10.35913      4.25547      6.23373        -0.051042     -0.351288      0.635395
C      0.08601      7.29314      7.29314        -0.009404     -0.232767     -0.466420
C      0.13007      6.23373      6.23373        -0.001002      0.123057      0.205741
C      0.08601      3.19606      3.19606        -0.017832      0.652582      0.175282
C      0.13007      4.25547      4.25547        -0.092693     -0.198525     -0.168085
C     10.40319      7.29314      3.19606        -0.000896     -0.686465      0.522669
C     10.35913      6.23373      4.25547        -0.001298      0.533036     -0.361240
C      7.29314     10.40319      3.19606        -0.358547      0.022003      0.843304
C      6.23373     10.35913      4.25547         0.214933      0.013684     -0.147893
C      7.29314      0.08601      7.29314        -0.305301     -0.046994     -0.261146
C      6.23373      0.13007      6.23373         0.260904     -0.060454      0.284555
C      3.19606      0.08601      3.19606         0.412077     -0.053260      1.315055
C      4.25547      0.13007      4.25547        -0.124243     -0.023853     -0.453623
C      3.19606     10.40319      7.29314         0.711249      0.015599     -0.264948
C      4.25547     10.35913      6.23373        -0.136714      0.033829      0.112491
C      3.19606      7.29314     10.40319         0.593769     -1.266447      0.030032
C      4.25547      6.23373     10.35913        -0.731632      0.815153      0.041610
C      7.29314      7.29314      0.08601        -0.654522     -0.168996     -0.023780
C      6.23373      6.23373      0.13007         0.170012      0.271449     -0.011653
C      3.19606      3.19606      0.08601         0.241171      0.250348     -0.020154
C      4.25547      4.25547      0.13007        -0.051250     -0.035856      0.014818
C      7.29314      3.19606     10.40319        -0.373003      0.767219      0.019523
C      6.23373      4.25547     10.35913         0.851159     -0.169540      0.018317
O     10.43466      3.58206      8.50569        -0.051088      0.028342      0.313538
O     10.54374     17.39634      8.50569        -0.022666     -0.185108      0.605131
O     10.54374      3.58206     12.47271         0.056610      0.060138     -0.319074
O     10.43466     17.39634     12.47271        -0.025260     -0.124156     -0.576885
O      8.50569     10.43466      3.58206         0.393539     -0.020738     -0.007257
O      8.50569     10.54374     17.39634         0.467962      0.054429     -0.143416
O     12.47271     10.54374      3.58206        -0.268044      0.053569     -0.086019
O     12.47271     10.43466     17.39634        -0.852499      0.021503     -0.220392
O      3.58206      8.50569     10.43466         0.036193      0.909803      0.041258
O     17.39634      8.50569     10.54374        -0.038945      0.339696      0.078503
O      3.58206     12.47271     10.54374         0.065300     -0.420500      0.063053
O     17.39634     12.47271     10.43466        -0.168028     -0.761574      0.016127
O      3.58206     10.43466      8.50569        -0.055574     -0.065104      0.229181
O     17.39634     10.54374      8.50569        -0.135800      0.042039      0.453860
O      3.58206     10.54374     12.47271        -0.030629     -0.053645     -0.885981
O     17.39634     10.43466     12.47271        -0.195562      0.039306     -0.755685
O     10.43466      8.50569      3.58206         0.042069      0.685203      0.193430
O     10.54374      8.50569     17.39634         0.053274      0.425541     -0.077648
O     10.54374     12.47271      3.58206        -0.013803     -0.729397      0.232206
O     10.43466     12.47271     17.39634         0.050880     -0.855129     -0.277592
O      8.50569      3.58206     10.43466         0.497441      0.082229     -0.039330
O      8.50569     17.39634     10.54374         0.653715     -0.249571     -0.059507
O     12.47271      3.58206     10.54374        -0.490415      0.162889      0.040504
O     12.47271     17.39634     10.43466        -0.523000     -0.038656     -0.033131
O     11.90042     11.90042     19.56718        -0.305426     -0.312385      0.264003
O     19.56718     19.56718     19.56718         0.287861      0.272318      0.321076
O     19.56718     11.90042     11.90042         0.281555     -0.330206     -0.243465
O     11.90042     19.56718     11.90042        -0.225381      0.292133     -0.240360
O      9.45224      1.03696      9.45224        -0.073842      0.050076     -0.066192
O      1.03696      9.45224      9.45224         0.059905     -0.142796     -0.054169
O      1.03696      1.03696      1.03696         0.046378      0.030555      0.187201
O      9.45224      9.45224      1.03696        -0.038534     -0.090292      0.123645
Zr     10.48920      2.52580     10.48920        -0.006591     -0.073954     -0.023145
Zr     10.48920     18.45260     10.48920         0.051829      0.301720     -0.071361
Zr     10.48920     10.48920      2.52580        -0.104187      0.006403     -0.371193
Zr     10.48920     10.48920     18.45260        -0.136114     -0.166274      0.322409
Zr      2.52580     10.48920     10.48920        -0.338118      0.323433     -0.475057
Zr     18.45260     10.48920     10.48920         0.233792      0.040307     -0.260426
Pd      9.05080     10.27490     13.34995        -0.011792      0.000518     -0.002843
Pd     10.60298      9.74080     11.04066         0.004512     -0.019698     -0.069759
Pd     13.75738      8.55015     12.69806         0.003613      0.004166     -0.013638
Pd     11.00117     11.09098     15.03854        -0.000231     -0.016493     -0.018851
Pd     12.85785     11.19871     13.04720         0.006492     -0.007313     -0.007767
Pd     14.96549     10.92097     11.34913         0.011991      0.014874     -0.009443
Pd      6.66793      7.42292     12.33385        -0.011370      0.016843      0.005630
Pd      9.21460      7.25827     10.16705         0.015520      0.004766     -0.041503
Pd      9.26688      7.62660     12.82783         0.004045     -0.019873     -0.016189
Pd     11.69578      7.29016     11.48228         0.003102     -0.002166     -0.010477
Pd     11.35156      8.00117      8.87377         0.040062     -0.012364     -0.003094
Pd      7.25399     11.83646     11.97914         0.001948     -0.006823     -0.027915
Pd      8.88913     14.66882      9.33428         0.022633      0.008703      0.004552
Pd      8.42352     12.67248     14.32776        -0.000383     -0.009257     -0.001769
Pd     13.44889     14.04860      8.59858         0.084015      0.037475     -0.038625
Pd     10.92326     13.29620      8.49089         0.066161      0.033670      0.041005
Pd     14.07497     11.48387      8.92938        -0.001084      0.039928     -0.000001
Pd      8.62522     14.10653     12.09918         0.001549      0.005921      0.006659
Pd     12.24527     13.75910     14.02211        -0.007737     -0.014972     -0.000031
Pd     11.15283     14.42510     11.11752         0.013587      0.008975      0.042431
Pd     14.06933     13.54927     12.17615        -0.010349      0.010543     -0.005574
Pd     12.31912     12.14882     10.68306        -0.006673     -0.016316     -0.019217
Pd     12.61968     12.26257      6.73329         0.038591      0.061865     -0.014082
Pd     13.60773      8.92517      7.91216         0.051412      0.009599     -0.004527
Pd      6.85382      8.46381      8.87024         0.014348      0.018096      0.003479
Pd      5.52582      9.90898     11.29995         0.032413      0.036508     -0.051050
Pd      9.10475      9.77820      8.29798         0.030496     -0.034009     -0.002209
Pd      8.84021      7.25530      7.50575        -0.016722     -0.012082     -0.032195
Pd      9.51164     12.07229     10.43512         0.016874      0.014059     -0.012197
Pd     11.49697     10.69258      8.62064         0.037284      0.031295     -0.038351
Pd     11.19704      9.28326      6.44590         0.036350     -0.040592     -0.015988
Pd      9.84263     11.58941      6.36781         0.052452     -0.018830      0.012127
Ir     11.36272      9.10365     13.40448        -0.002847      0.012085     -0.028131
Ir     13.06961      9.45126     10.39862         0.000188      0.015762      0.003269
Ir     10.54470     12.36883     12.71101        -0.009621     -0.006023      0.024168
Ir      7.10204     10.98288      9.53318         0.005735     -0.066166      0.051755
Ir      8.35442     12.44958      8.20357         0.081221      0.056259     -0.044395
Ir      8.07680      9.31359     11.13084        -0.048779      0.032392     -0.032751
