152
# total energy = -1061.44653659 eVH     10.35389      5.87395      7.64558        -0.205920      0.128607      1.027115
H     10.62451     15.10445      7.64558         0.443829     -0.118147      0.786452
H     10.62451      5.87395     13.33282        -0.090330      0.100380     -0.453766
H     10.35389     15.10445     13.33282         0.087656     -0.191238     -0.404767
H      7.64558     10.35389      5.87395         0.881943      0.201073      0.222601
H      7.64558     10.62451     15.10445         0.210314     -0.023120     -0.071118
H     13.33282     10.62451      5.87395        -0.596062     -0.049658      0.168129
H     13.33282     10.35389     15.10445        -0.322868     -0.055168     -0.076922
H      5.87395      7.64558     10.35389         0.127261      0.361611     -0.078411
H     15.10445      7.64558     10.62451        -0.138222      0.441996      0.177523
H      5.87395     13.33282     10.62451         0.106412     -0.639274      0.125160
H     15.10445     13.33282     10.35389        -0.228773     -0.435807      0.091794
H      5.87395     10.35389      7.64558         0.156250      0.283731      0.388023
H     15.10445     10.62451      7.64558        -0.139993     -0.360399      0.735690
H      5.87395     10.62451     13.33282         0.036638      0.149813     -0.707502
H     15.10445     10.35389     13.33282         0.075738     -0.244507     -0.730973
H     10.35389      7.64558      5.87395        -0.161404      0.447299      0.214099
H     10.62451      7.64558     15.10445         0.370574      0.612752     -0.119784
H     10.62451     13.33282      5.87395         0.076400     -0.556806      0.100959
H     10.35389     13.33282     15.10445         0.259285     -0.712220     -0.089895
H      7.64558      5.87395     10.35389         0.488956      0.145580     -0.155730
H      7.64558     15.10445     10.62451         0.398675     -0.145727      0.442673
H     13.33282      5.87395     10.62451        -0.390478      0.161139     -0.076514
H     13.33282     15.10445     10.35389        -0.582537     -0.293479      0.118671
H     12.45634     12.45634     19.01126         0.230516      0.265805     -0.249093
H     19.01126     19.01126     19.01126        -0.261838     -0.259080     -0.230581
H     19.01126     12.45634     12.45634        -0.234415      0.276250      0.235157
H     12.45634     19.01126     12.45634         0.276001     -0.210504      0.256196
C     10.35284      5.61067      6.59456         0.275283     -0.305080     -0.779350
C     10.62556     15.36773      6.59456        -0.187782      0.636972     -0.302161
C     10.62556      5.61067     14.38384         0.252797     -0.236019      0.488326
C     10.35284     15.36773     14.38384        -0.112248      0.277067      0.282247
C      6.59456     10.35284      5.61067        -0.832307     -0.095046     -0.242189
C      6.59456     10.62556     15.36773        -0.514502      0.046342      0.346117
C     14.38384     10.62556      5.61067         0.785444     -0.031492     -0.630120
C     14.38384     10.35284     15.36773         0.267762     -0.071770      0.348221
C      5.61067      6.59456     10.35284        -0.407604     -0.356066      0.079284
C     15.36773      6.59456     10.62556         0.317143     -0.472964     -0.066649
C      5.61067     14.38384     10.62556        -0.150800      0.486826     -0.413034
C     15.36773     14.38384     10.35284         0.411269      0.828310     -0.096396
C      5.61067     10.35284      6.59456        -0.317874     -0.174557     -0.109059
C     15.36773     10.62556      6.59456         0.210074      0.280510     -0.578485
C      5.61067     10.62556     14.38384        -0.343054     -0.040574      1.212312
C     15.36773     10.35284     14.38384         0.292806     -0.065856      0.990563
C     10.35284      6.59456      5.61067         0.081467     -0.242477     -0.505978
C     10.62556      6.59456     15.36773         0.012127     -0.781081      0.116314
C     10.62556     14.38384      5.61067        -0.383627      0.187500     -0.926987
C     10.35284     14.38384     15.36773        -0.259922      0.832079      0.269498
C      6.59456      5.61067     10.35284        -0.354479     -0.291156      0.258778
C      6.59456     15.36773     10.62556        -0.262091      0.516992     -0.064981
C     14.38384      5.61067     10.62556         0.474795     -0.378780      0.059487
C     14.38384     15.36773     10.35284         0.976405      0.272927     -0.065528
C     10.40319      3.19606      7.29314         0.008418      0.549852     -0.315449
C     10.35913      4.25547      6.23373        -0.012926     -0.526535      0.408709
C      0.08601      7.29314      7.29314        -0.015545     -0.840215     -0.565404
C      0.13007      6.23373      6.23373        -0.192527      0.878275      0.152174
C      0.08601      3.19606      3.19606        -0.009927      0.414979      0.389079
C      0.13007      4.25547      4.25547         0.066945     -0.232224     -0.568122
C     10.40319      7.29314      3.19606        -0.046116     -1.020844      0.787894
C     10.35913      6.23373      4.25547         0.018528      0.336497     -0.232804
C      7.29314     10.40319      3.19606        -1.329808     -0.085143      0.325550
C      6.23373     10.35913      4.25547         0.264233      0.017950     -0.701156
C      7.29314      0.08601      7.29314        -0.828795     -0.002345     -0.409736
C      6.23373      0.13007      6.23373         0.326278      0.052672      0.126340
C      3.19606      0.08601      3.19606         0.320684      0.000035      0.431585
C      4.25547      0.13007      4.25547        -0.283886     -0.032290     -0.176727
C      3.19606     10.40319      7.29314         0.494434     -0.040882     -1.036774
C      4.25547     10.35913      6.23373        -0.323672     -0.075893      0.097005
C      3.19606      7.29314     10.40319         1.082970     -0.443664      0.012710
C      4.25547      6.23373     10.35913        -0.194816      0.166607     -0.000017
C      7.29314      7.29314      0.08601        -0.510167     -0.281328     -0.007544
C      6.23373      6.23373      0.13007         0.167907      0.182721     -0.157116
C      3.19606      3.19606      0.08601         0.357442      0.884087     -0.008858
C      4.25547      4.25547      0.13007        -0.590085     -0.179753      0.037336
C      7.29314      3.19606     10.40319        -0.198529      0.493964      0.026777
C      6.23373      4.25547     10.35913        -0.010900     -0.368664      0.043441
O     10.43466      3.58206      8.50569        -0.023437      0.132722      0.389818
O     10.54374     17.39634      8.50569         0.040925      0.051785      0.367819
O     10.54374      3.58206     12.47271         0.040753      0.194799     -0.575336
O     10.43466     17.39634     12.47271         0.029817     -0.020135     -0.476106
O      8.50569     10.43466      3.58206         0.771213     -0.059890     -0.028847
O      8.50569     10.54374     17.39634         0.853880      0.022276     -0.162744
O     12.47271     10.54374      3.58206        -0.348468      0.036166      0.083340
O     12.47271     10.43466     17.39634        -0.377523     -0.036661      0.040008
O      3.58206      8.50569     10.43466        -0.103618      0.261364     -0.079610
O     17.39634      8.50569     10.54374        -0.104714      0.445973      0.043941
O      3.58206     12.47271     10.54374         0.150346     -0.824058     -0.022285
O     17.39634     12.47271     10.43466        -0.238456     -0.632628     -0.016364
O      3.58206     10.43466      8.50569         0.126225     -0.031831      0.794743
O     17.39634     10.54374      8.50569         0.001441      0.036268      0.339566
O      3.58206     10.54374     12.47271         0.066778      0.018150     -0.457711
O     17.39634     10.43466     12.47271         0.057208      0.012700     -0.238938
O     10.43466      8.50569      3.58206        -0.055108      0.553197     -0.070282
O     10.54374      8.50569     17.39634         0.029360      0.863165     -0.203679
O     10.54374     12.47271      3.58206         0.070341     -0.369050      0.073240
O     10.43466     12.47271     17.39634        -0.055204     -0.643912     -0.198712
O      8.50569      3.58206     10.43466         0.351066      0.083733     -0.052295
O      8.50569     17.39634     10.54374         0.564771     -0.168192     -0.018738
O     12.47271      3.58206     10.54374        -0.366895      0.049295      0.036482
O     12.47271     17.39634     10.43466        -0.831103     -0.143525      0.074424
O     11.90042     11.90042     19.56718        -0.243646     -0.283232      0.237283
O     19.56718     19.56718     19.56718         0.300571      0.292904      0.250295
O     19.56718     11.90042     11.90042         0.228587     -0.305516     -0.275707
O     11.90042     19.56718     11.90042        -0.274677      0.180089     -0.276776
O      9.45224      1.03696      9.45224        -0.107312      0.086063     -0.086219
O      1.03696      9.45224      9.45224         0.122612     -0.150005     -0.174858
O      1.03696      1.03696      1.03696         0.138473      0.209250     -0.002203
O      9.45224      9.45224      1.03696        -0.212066     -0.171785      0.029319
Zr     10.48920      2.52580     10.48920        -0.004633     -0.232726      0.147765
Zr     10.48920     18.45260     10.48920        -0.301680      0.310002     -0.152552
Zr     10.48920     10.48920      2.52580         0.366210      0.388588     -0.230408
Zr     10.48920     10.48920     18.45260        -0.001273      0.020903      0.470177
Zr      2.52580     10.48920     10.48920        -0.558368      0.019996      0.343933
Zr     18.45260     10.48920     10.48920         0.272691     -0.143058      0.001793
Pd      9.22092     14.66431      9.22304         0.005927      0.005851      0.005462
Pd      8.47257     13.21096     13.82131         0.001282     -0.003542      0.004880
Pd     12.14437     14.12858      8.65706         0.003670      0.010161      0.006606
Pd     12.24856     12.75810     10.89424         0.005541     -0.015241      0.014294
Pd     11.77095      7.07694     11.87824         0.001189      0.005833     -0.008827
Pd     11.18038     15.31447     10.94475        -0.010953     -0.008612      0.004747
Pd      9.61038     13.16754     11.40527        -0.002958     -0.007398      0.006943
Pd     14.02379     12.40304      7.96677        -0.003364     -0.005692      0.002527
Pd     11.57198     11.77414      6.74768         0.001995      0.010325      0.004138
Pd      7.41800      8.53029      7.19219         0.002440      0.006556     -0.004480
Pd      8.60742     12.10448      6.91314        -0.013473     -0.005276      0.010986
Pd      9.70499      9.91028      7.99591         0.001476     -0.001365      0.012274
Pd      8.47646     14.75290      6.58419        -0.004880      0.008223     -0.001379
Pd     12.01216      9.06408      6.83483         0.001961      0.009968     -0.008219
Pd      9.89820     10.05649      5.40077         0.007945      0.012587      0.001409
Pd      6.89905      9.22044     12.16843        -0.008394     -0.004802      0.010340
Pd     12.39565      6.53566      7.65981         0.012383      0.001730      0.002562
Pd      5.56570     10.69255     10.10585         0.011238      0.002350      0.013786
Pd      7.56469      6.66491     12.69400        -0.006105     -0.008716      0.010090
Ir     11.27851      9.53622     12.83630         0.013617     -0.016602     -0.025678
Ir     13.06949      9.23284     11.06963        -0.014490     -0.021254      0.009893
Ir      9.15038      8.42134     13.75423        -0.009960     -0.009051      0.008186
Ir     10.27712     10.37313     15.06339        -0.009847     -0.005841      0.017558
Ir      7.10301     11.90989     11.84630        -0.012330      0.009393      0.002069
Ir     14.40055     11.19380     10.31288         0.013413     -0.008228      0.001201
Ir     12.26868     10.62801      9.04945        -0.020857      0.002015     -0.005244
Ir      8.92528     10.78994     12.89071        -0.015450      0.001920     -0.004876
Ir     10.01553     10.29345     10.61084        -0.000717     -0.001203     -0.005905
Ir     13.29842     11.19145     12.60342        -0.004638      0.008402      0.006651
Ir     11.09530     12.03990     13.31914        -0.000861      0.009663      0.009194
Ir      7.95082     11.74075      9.51090         0.003945     -0.025563      0.019936
Ir     11.26455      8.16250      9.43416         0.005485      0.004405      0.003197
Ir      6.98127     13.60970      8.38713        -0.005703      0.031770     -0.006417
Ir      9.04617      7.29045      8.79322         0.002701      0.002391      0.000425
Ir      7.73012      9.21995      9.70381         0.004578      0.001666      0.011257
Ir     10.35590     12.34553      8.98055        -0.001721     -0.008620     -0.004129
Ir      9.31451      7.90164     11.24890         0.016740      0.001715     -0.025928
Ir     13.73351      8.47657      8.78189        -0.010742      0.005525      0.002592
