35
# total energy = -286.24896750 eVC      6.62183     10.17967      7.54800         0.025049      0.115785     -0.000463
C      8.01142      9.81155      7.54211        -0.012923     -0.123603      0.004911
C      9.30142      5.59364      7.55735        -0.121264      0.056342     -0.005589
C      1.50144      5.33639      7.55847         0.143592     -0.049853     -0.003764
C      4.18005      0.74946      7.57658        -0.025145     -0.094321      0.000548
C      2.79021      1.11789      7.56774         0.037629      0.118911      0.003898
C      0.71149      4.14804      7.55858        -0.107025     -0.024187      0.006788
C      1.10814      2.76660      7.56042         0.114676      0.011367      0.002194
C      5.35281      1.56363      7.58278        -0.068519      0.114336     -0.002921
C      5.44890      9.36631      7.55495         0.073236     -0.141977     -0.001833
C     10.09208      6.78204      7.54690         0.086424      0.026437      0.002127
C      9.69471      8.16353      7.54158        -0.113511     -0.016144     -0.000082
C      0.75001      6.54436      7.55146        -0.007508      0.056508      0.003096
C      1.18215      7.92377      7.54601         0.013065     -0.023892      0.005472
C     10.05355      4.38627      7.55697        -0.011778     -0.065050     -0.005304
C      9.62039      3.00701      7.56078        -0.015320      0.013539      0.001968
C      4.22663     10.09363      7.55043        -0.050873      0.016704     -0.001527
C      2.85678      9.63323      7.54502         0.019360     -0.011884      0.002000
C      6.57508      0.83566      7.57575         0.052509      0.005534      0.000881
C      7.94501      1.29677      7.56909        -0.011542      0.018284      0.007169
N      8.77850      0.21604      7.56554         0.147833     -0.036791     -0.004359
N      0.08438      8.73496      7.54285        -0.034075      0.135084      0.000841
N      8.43573      8.56108      7.54301         0.005052      0.018636     -0.000086
N      2.36707      2.36841      7.56178        -0.022000     -0.005796      0.005505
N      2.02320     10.71396      7.53820        -0.143265      0.031555      0.001715
N     10.71793      2.19565      7.55818         0.040957     -0.143192     -0.000562
N      2.46806      8.33922      7.54726         0.153461     -0.165635      0.000835
N      8.33447      2.59112      7.56710        -0.164427      0.157628     -0.001420
O      5.27507      2.85279      7.59438        -0.032342      0.034965     -0.011951
O      5.52704      8.07710      7.56390         0.029291     -0.037827     -0.004707
O      8.01092      5.64538      7.56620        -0.037784      0.028713     -0.001466
O      2.79198      5.28369      7.56531         0.038413     -0.020612     -0.005450
Pd      6.84159      4.05424      7.57937        -0.083963      0.089837      0.000187
Pd      3.96039      6.87548      7.56368         0.095190     -0.090153     -0.003729
Pd      0.02567     10.73177      7.53835        -0.012474      0.000754      0.005080
