35
# total energy = -286.26840777 eVC      6.62218     10.18495      7.54866         0.025556      0.011004     -0.000354
C      8.01272      9.81568      7.54278         0.040127     -0.028427      0.000956
C      9.29247      5.59963      7.55614        -0.000047     -0.010203      0.001089
C      1.50984      5.33050      7.55797         0.016026      0.003128      0.001577
C      4.18032      0.74503      7.57664        -0.029974     -0.016870     -0.000396
C      2.78932      1.11498      7.56914        -0.001965     -0.055720      0.002105
C      0.70675      4.14798      7.55926        -0.011541     -0.027238     -0.000478
C      1.10416      2.76532      7.56184         0.037455     -0.046942      0.001134
C      5.34606      1.57195      7.58139         0.011203      0.000392     -0.000630
C      5.45614      9.35815      7.55424         0.000733     -0.023953      0.000417
C     10.09567      6.78190      7.54723         0.016588      0.032512     -0.000792
C      9.69715      8.16489      7.54191         0.055909      0.005976      0.002683
C      0.75500      6.54130      7.55239         0.016542      0.014626     -0.000151
C      1.19004      7.91962      7.54739        -0.021590      0.002640     -0.000222
C     10.04750      4.38876      7.55598        -0.029176     -0.015009      0.000164
C      9.61250      3.01032      7.56063        -0.011727      0.005076      0.001141
C      4.23029     10.08810      7.55015        -0.018082     -0.018729      0.000123
C      2.86115      9.62487      7.54567        -0.008178      0.018789      0.001767
C      6.57216      0.84175      7.57639         0.014692      0.032290     -0.000283
C      7.94144      1.30484      7.57001        -0.004467      0.007316     -0.000429
N      8.77943      0.22201      7.56588         0.031623      0.034598      0.002486
N      0.08977      8.73516      7.54389         0.048047      0.036978      0.003098
N      8.43995      8.56531      7.54319        -0.048439      0.052750      0.001209
N      2.36317      2.36355      7.56400        -0.060659      0.057069      0.002947
N      2.02318     10.70813      7.53965        -0.038068     -0.052748      0.003840
N     10.71214      2.19463      7.55874        -0.031800     -0.030575      0.003289
N      2.48141      8.32548      7.54800         0.013095     -0.004293      0.001428
N      8.32072      2.60456      7.56730         0.003039      0.000153      0.000589
O      5.25769      2.86094      7.58992        -0.005645     -0.035304     -0.007490
O      5.54491      8.06884      7.56195         0.004927      0.054336     -0.005213
O      8.00194      5.66182      7.56518         0.036595      0.006406     -0.003076
O      2.80059      5.26811      7.56294        -0.049823     -0.008479     -0.004419
Pd      6.81584      4.07909      7.57829         0.008546     -0.007976     -0.006329
Pd      3.98681      6.85068      7.56169        -0.009783      0.008041     -0.004062
Pd      0.02570     10.73149      7.53966         0.000260     -0.001613      0.002282
