152
# total energy = -1004.85630753 eVH     10.35389      5.87395      7.64558         0.052133      0.071432      0.643590
H     10.62451     15.10445      7.64558        -0.121806     -0.154598      0.514679
H     10.62451      5.87395     13.33282         0.444685      0.036612     -0.837866
H     10.35389     15.10445     13.33282         0.037271     -0.159370     -0.456349
H      7.64558     10.35389      5.87395         0.343445      0.027608      0.158302
H      7.64558     10.62451     15.10445         0.951169      0.572813      0.020500
H     13.33282     10.62451      5.87395        -0.551337      0.349982      0.025703
H     13.33282     10.35389     15.10445        -0.957604     -0.250087      0.140228
H      5.87395      7.64558     10.35389         0.294004      1.392995      0.170091
H     15.10445      7.64558     10.62451        -0.105729      0.541077      0.259067
H      5.87395     13.33282     10.62451         0.185955     -0.566483      0.014557
H     15.10445     13.33282     10.35389         0.012629     -1.072250     -0.345030
H      5.87395     10.35389      7.64558         0.187616      0.039526      0.452530
H     15.10445     10.62451      7.64558        -0.135735      0.595030      0.823805
H      5.87395     10.62451     13.33282        -0.035388      0.603416     -1.308037
H     15.10445     10.35389     13.33282        -0.000346     -0.145096     -0.710847
H     10.35389      7.64558      5.87395         0.099620      1.379069      0.035781
H     10.62451      7.64558     15.10445         0.556453      0.722487     -0.129677
H     10.62451     13.33282      5.87395        -0.366095     -0.764755      0.292732
H     10.35389     13.33282     15.10445        -0.163722     -0.467275     -0.315772
H      7.64558      5.87395     10.35389         0.904878      0.008547     -0.189062
H      7.64558     15.10445     10.62451         0.808315     -0.183158     -0.005066
H     13.33282      5.87395     10.62451        -0.598857      0.166504      0.519464
H     13.33282     15.10445     10.35389        -0.444699     -0.083941     -0.164249
H     12.45634     12.45634     19.01126         0.257334      0.270191     -0.229251
H     19.01126     19.01126     19.01126        -0.276847     -0.260892     -0.223482
H     19.01126     12.45634     12.45634        -0.276791      0.259681      0.221726
H     12.45634     19.01126     12.45634         0.238011     -0.268996      0.263035
C     10.35284      5.61067      6.59456        -0.298312     -0.796237     -0.045568
C     10.62556     15.36773      6.59456         0.030362      0.229027     -0.324081
C     10.62556      5.61067     14.38384        -0.067285     -0.444063      0.517682
C     10.35284     15.36773     14.38384         0.006305      0.296753      0.434153
C      6.59456     10.35284      5.61067        -0.365064      0.022303     -0.197105
C      6.59456     10.62556     15.36773        -0.999476      0.184688      0.749737
C     14.38384     10.62556      5.61067         0.237343     -0.340332     -0.744699
C     14.38384     10.35284     15.36773         1.125573     -0.074544      0.235122
C      5.61067      6.59456     10.35284        -0.745889     -0.355649     -0.290432
C     15.36773      6.59456     10.62556         0.623511     -0.107485     -0.300048
C      5.61067     14.38384     10.62556        -0.191404      0.609016      0.001120
C     15.36773     14.38384     10.35284         0.291019      1.025108      0.073154
C      5.61067     10.35284      6.59456        -0.273222      0.012111     -0.765047
C     15.36773     10.62556      6.59456         0.545502     -0.155054      0.100179
C      5.61067     10.62556     14.38384        -0.724489      0.000351      0.910001
C     15.36773     10.35284     14.38384         0.524655     -0.103410      1.039982
C     10.35284      6.59456      5.61067        -0.052407     -0.843191     -0.526214
C     10.62556      6.59456     15.36773         0.097462     -0.617144      0.484342
C     10.62556     14.38384      5.61067         0.113969      1.170121     -0.293867
C     10.35284     14.38384     15.36773        -0.021185      0.986392      0.521748
C      6.59456      5.61067     10.35284         0.078465     -1.132053      0.300600
C      6.59456     15.36773     10.62556        -0.979378      0.174347      0.103017
C     14.38384      5.61067     10.62556         0.016039     -0.460057     -0.390087
C     14.38384     15.36773     10.35284         0.172194      0.473788     -0.068545
C     10.40319      3.19606      7.29314         0.015623      1.036165     -0.449548
C     10.35913      4.25547      6.23373         0.079822     -0.641418      0.086997
C      0.08601      7.29314      7.29314        -0.030920     -0.924968     -0.174518
C      0.13007      6.23373      6.23373        -0.072312      0.252377      0.346877
C      0.08601      3.19606      3.19606         0.034748      1.328048      0.194373
C      0.13007      4.25547      4.25547        -0.027227     -0.430681     -0.323987
C     10.40319      7.29314      3.19606         0.007424     -0.414837      0.288329
C     10.35913      6.23373      4.25547         0.024498      0.043269     -0.874211
C      7.29314     10.40319      3.19606        -0.257219      0.019543      0.576193
C      6.23373     10.35913      4.25547         0.164784      0.076327     -0.101172
C      7.29314      0.08601      7.29314        -1.137750     -0.088380     -0.279876
C      6.23373      0.13007      6.23373         0.831486     -0.213012      0.384512
C      3.19606      0.08601      3.19606         1.031177     -0.028249      0.551758
C      4.25547      0.13007      4.25547        -0.630983     -0.171523     -0.597097
C      3.19606     10.40319      7.29314         0.605155      0.007906     -0.605909
C      4.25547     10.35913      6.23373        -0.288304      0.107400      0.240884
C      3.19606      7.29314     10.40319         0.337415     -1.124956      0.030696
C      4.25547      6.23373     10.35913        -1.109788      0.047471      0.142053
C      7.29314      7.29314      0.08601        -0.447772     -0.451654     -0.015165
C      6.23373      6.23373      0.13007         0.486061      0.301189      0.028323
C      3.19606      3.19606      0.08601         0.450077      0.369541     -0.034244
C      4.25547      4.25547      0.13007        -0.075147     -0.607506     -0.073607
C      7.29314      3.19606     10.40319        -0.393272      0.498705      0.063452
C      6.23373      4.25547     10.35913         0.336829     -0.769954      0.190881
O     10.43466      3.58206      8.50569        -0.031963      0.009610      0.412875
O     10.54374     17.39634      8.50569         0.067277     -0.046724      0.265426
O     10.54374      3.58206     12.47271         0.014848     -0.096521     -0.115081
O     10.43466     17.39634     12.47271        -0.033906     -0.155472     -0.531363
O      8.50569     10.43466      3.58206         0.295142     -0.019937      0.018083
O      8.50569     10.54374     17.39634         0.909647     -0.074299     -0.172611
O     12.47271     10.54374      3.58206        -0.834958      0.098304      0.075141
O     12.47271     10.43466     17.39634        -0.546105      0.026077     -0.094200
O      3.58206      8.50569     10.43466         0.175600      1.014499     -0.029664
O     17.39634      8.50569     10.54374        -0.148223      0.627355      0.054284
O      3.58206     12.47271     10.54374         0.101846     -0.494278      0.040811
O     17.39634     12.47271     10.43466        -0.153162     -0.599454     -0.030806
O      3.58206     10.43466      8.50569         0.075000     -0.079752      0.562121
O     17.39634     10.54374      8.50569         0.038494      0.106345      0.342946
O      3.58206     10.54374     12.47271         0.008877      0.037782     -0.471433
O     17.39634     10.43466     12.47271        -0.232673     -0.033851     -0.698500
O     10.43466      8.50569      3.58206        -0.044044      0.513987      0.147037
O     10.54374      8.50569     17.39634        -0.076236      0.736140     -0.207762
O     10.54374     12.47271      3.58206         0.051747     -0.973282      0.169108
O     10.43466     12.47271     17.39634         0.080539     -0.898183     -0.232689
O      8.50569      3.58206     10.43466         0.573056      0.142094     -0.058939
O      8.50569     17.39634     10.54374         0.542591     -0.163342     -0.002785
O     12.47271      3.58206     10.54374        -0.628401      0.165481      0.020120
O     12.47271     17.39634     10.43466        -0.339482      0.017514     -0.046117
O     11.90042     11.90042     19.56718        -0.292784     -0.309746      0.222428
O     19.56718     19.56718     19.56718         0.316677      0.305835      0.213035
O     19.56718     11.90042     11.90042         0.318717     -0.264941     -0.238045
O     11.90042     19.56718     11.90042        -0.251496      0.320562     -0.312544
O      9.45224      1.03696      9.45224        -0.011386      0.064506     -0.154120
O      1.03696      9.45224      9.45224         0.067637     -0.055120     -0.177405
O      1.03696      1.03696      1.03696         0.094292      0.143814      0.041549
O      9.45224      9.45224      1.03696        -0.086845     -0.085644      0.021380
Zr     10.48920      2.52580     10.48920        -0.050079     -0.191144      0.000428
Zr     10.48920     18.45260     10.48920        -0.060716      0.131968      0.223896
Zr     10.48920     10.48920      2.52580        -0.148508     -0.442473     -0.219726
Zr     10.48920     10.48920     18.45260         0.013364      0.030585      0.507516
Zr      2.52580     10.48920     10.48920        -0.280980      0.216151      0.207731
Zr     18.45260     10.48920     10.48920         0.174142     -0.013481     -0.039912
Pd     13.45194      8.74397      9.37828        -0.009550     -0.025983     -0.001187
Pd      5.85719      9.74673     10.04224        -0.026585     -0.023297     -0.041090
Pd      6.90567     11.47548     11.74114         0.090865     -0.077556      0.074776
Pd     12.17014     13.12500      7.43123         0.078892     -0.036406     -0.044538
Pd     12.16204      7.65521      6.93105        -0.040379      0.082342      0.125062
Pd      8.35718      7.10173      6.71468         0.042791      0.044112      0.017170
Pd     11.06383     11.33713      5.60722        -0.043489      0.007358      0.009257
Pd     14.60109      8.58334      6.94941         0.063488      0.025052     -0.009552
Pd      9.89650     11.68122      8.14335        -0.175147      0.044909      0.004830
Pd      6.82573      6.85181     12.24805        -0.076264     -0.015669     -0.080952
Pd      6.38450      7.52699      8.37653         0.037089     -0.090918     -0.028726
Pd      7.08286      9.05912     13.65482         0.122766     -0.090587     -0.034334
Pd     11.61682      6.55496      9.28222         0.053608     -0.010948     -0.013871
Pd      9.93213      9.32011      6.85092        -0.004837     -0.054325     -0.104797
Pd      9.06229     13.91163      9.46559         0.034017     -0.019425     -0.094011
Pd     10.52780      7.33362     11.47636        -0.075396      0.045914      0.134010
Pd     10.59944      9.08098      9.45306         0.167331      0.017931      0.007476
Pd      9.41992     11.30391     10.74819        -0.061478      0.065030     -0.031419
Pd      8.96481      7.02093      9.29522        -0.038640     -0.057053     -0.127431
Pd      9.02240      7.29575     13.59460        -0.045033      0.012664     -0.024012
Pd      8.24662      8.91184     11.23853        -0.026317     -0.001555      0.293408
Pd     12.25439     10.36044      7.72844        -0.130611     -0.043369     -0.115122
Pd      7.27117     11.99256      9.16928         0.052037     -0.016588     -0.003744
Pd      8.07693      9.54346      8.64139         0.022415      0.152246     -0.096602
Pd     14.14205      6.36134      8.41542         0.027727      0.077276      0.081979
Pd     12.85930      8.51436     11.95432        -0.133450     -0.092989     -0.085645
Pd      8.82296     11.46736     13.52097        -0.007239     -0.016441     -0.051466
Pd     13.83501     11.93689      9.09406         0.110657      0.092565      0.000057
Pd     13.01684     10.98355     13.25096         0.019448     -0.129283     -0.116193
Pd     14.74492     10.41664     11.12692        -0.034195     -0.041540      0.042199
Pd     12.07898     10.75508     10.73959        -0.127149     -0.076212      0.033964
Pd     11.47929     13.17920      9.97004         0.005285      0.054586     -0.087603
Pd     13.60841     13.00421     11.64984        -0.021591      0.062105      0.014906
Pd     11.07894     12.67992     12.53757        -0.141389      0.035528     -0.062177
Pd     11.07209     11.44942     14.97100         0.033249      0.004646      0.050616
Pd     10.60497      9.69940     12.79981         0.066107     -0.190178     -0.136830
Pd      9.36896      9.41821     15.20707         0.105689      0.000025      0.006204
Pd      8.64609     13.63547     12.05396         0.000473     -0.060592      0.020929
