20
# total energy = -160.58986517 eVC      8.34268      3.99509      7.50000         0.013334      0.026818     -0.000000
C      1.42281      0.00002      7.50000        -0.029955     -0.001177     -0.000000
C      8.34276     -3.99560      7.50000         0.011851     -0.023940      0.000000
C      0.71144      1.23229      7.50000        -0.013334     -0.026818     -0.000000
C      7.63130      5.22736      7.50000         0.029955      0.001177      0.000000
C      0.71135      9.22298      7.50000        -0.011851      0.023940      0.000000
C      7.63829     -2.77546      7.50000        -0.002757      0.004474      0.000000
C      7.63823      2.77500      7.50000         0.000998      0.001017      0.000000
C      2.83163     -0.00012      7.50000         0.010099      0.000487     -0.000000
C      1.41582      8.00284      7.50000         0.002757     -0.004474      0.000000
C      1.41588      2.45238      7.50000        -0.000998     -0.001017     -0.000000
C      6.22249      5.22750      7.50000        -0.010099     -0.000487      0.000000
N      7.05039     -1.75709      7.50000         0.000314     -0.000514      0.000000
N      7.05045      1.75666      7.50000        -0.004399     -0.006877      0.000000
N      4.00753     -0.00014      7.50000        -0.002577      0.000096      0.000000
N      2.00372      6.98448      7.50000        -0.000314      0.000514      0.000000
N      2.00366      3.47072      7.50000         0.004399      0.006877      0.000000
N      5.04658      5.22752      7.50000         0.002577     -0.000096      0.000000
Pd      6.03611     -0.00024      7.50000         0.000261      0.000155      0.000000
Pd      3.01800      5.22762      7.50000        -0.000261     -0.000155      0.000000
