152
# total energy = -1005.95537108 eVH     10.35389      5.87395      7.64558         0.201988      0.054255      0.604572
H     10.62451     15.10445      7.64558        -0.103294     -0.151858      0.528641
H     10.62451      5.87395     13.33282         0.492510      0.122718     -0.602876
H     10.35389     15.10445     13.33282         0.061430     -0.184921     -0.528615
H      7.64558     10.35389      5.87395         0.363763      0.030036      0.172630
H      7.64558     10.62451     15.10445         0.683600      0.477127     -0.044301
H     13.33282     10.62451      5.87395        -0.505587      0.390911      0.083215
H     13.33282     10.35389     15.10445        -0.790548     -0.079143     -0.009497
H      5.87395      7.64558     10.35389         0.274952      1.010599     -0.075899
H     15.10445      7.64558     10.62451        -0.101115      0.483996      0.279426
H      5.87395     13.33282     10.62451         0.152793     -0.693170     -0.171007
H     15.10445     13.33282     10.35389        -0.011981     -1.043388     -0.309939
H      5.87395     10.35389      7.64558         0.233457      0.042791      0.501539
H     15.10445     10.62451      7.64558        -0.121156      0.424680      0.788568
H      5.87395     10.62451     13.33282         0.149476      0.352408     -0.690251
H     15.10445     10.35389     13.33282        -0.051748     -0.058041     -0.693202
H     10.35389      7.64558      5.87395         0.324453      1.091451      0.020621
H     10.62451      7.64558     15.10445         0.525030      0.530744     -0.117150
H     10.62451     13.33282      5.87395        -0.405665     -0.823900      0.209523
H     10.35389     13.33282     15.10445        -0.041153     -0.437317     -0.225905
H      7.64558      5.87395     10.35389         0.859316      0.070891     -0.256607
H      7.64558     15.10445     10.62451         0.828280     -0.201480     -0.018098
H     13.33282      5.87395     10.62451        -0.780087      0.188581      0.589585
H     13.33282     15.10445     10.35389        -0.426710     -0.105246     -0.128712
H     12.45634     12.45634     19.01126         0.237428      0.268733     -0.240006
H     19.01126     19.01126     19.01126        -0.261010     -0.241349     -0.262181
H     19.01126     12.45634     12.45634        -0.268159      0.267028      0.221030
H     12.45634     19.01126     12.45634         0.233190     -0.259912      0.272820
C     10.35284      5.61067      6.59456        -0.395273     -0.680043      0.037896
C     10.62556     15.36773      6.59456         0.068338      0.368095     -0.303943
C     10.62556      5.61067     14.38384        -0.326990     -0.393143     -0.261248
C     10.35284     15.36773     14.38384        -0.003115      0.300615      0.527605
C      6.59456     10.35284      5.61067        -0.341029     -0.003176     -0.266469
C      6.59456     10.62556     15.36773        -0.257980     -0.213215      0.788744
C     14.38384     10.62556      5.61067        -0.222084     -0.402067     -0.525355
C     14.38384     10.35284     15.36773         0.956980     -0.071102      0.229390
C      5.61067      6.59456     10.35284        -0.549632     -0.047393     -0.200555
C     15.36773      6.59456     10.62556         0.553804     -0.002105     -0.247800
C      5.61067     14.38384     10.62556        -0.310271      0.983221      0.077082
C     15.36773     14.38384     10.35284         0.275864      1.043732      0.055147
C      5.61067     10.35284      6.59456        -0.213849     -0.077538     -0.614690
C     15.36773     10.62556      6.59456         0.428109     -0.254879      0.116999
C      5.61067     10.62556     14.38384        -0.668362     -0.348281     -0.123030
C     15.36773     10.35284     14.38384         0.389662     -0.060739      1.022921
C     10.35284      6.59456      5.61067        -0.226497     -0.431951     -0.609108
C     10.62556      6.59456     15.36773        -0.260877      0.151079      0.448344
C     10.62556     14.38384      5.61067         0.211599      1.046812     -0.337028
C     10.35284     14.38384     15.36773         0.005877      0.579498      0.398198
C      6.59456      5.61067     10.35284        -0.060710     -0.911093      0.280547
C      6.59456     15.36773     10.62556        -1.005232      0.269230      0.084622
C     14.38384      5.61067     10.62556         0.460492     -0.539635     -0.376912
C     14.38384     15.36773     10.35284         0.207384      0.446865     -0.087058
C     10.40319      3.19606      7.29314         0.016027      0.672098     -0.489397
C     10.35913      4.25547      6.23373         0.087814     -0.639074      0.026102
C      0.08601      7.29314      7.29314        -0.042983     -0.407357     -0.324831
C      0.13007      6.23373      6.23373        -0.028159      0.095410      0.568847
C      0.08601      3.19606      3.19606        -0.002006      1.313154      0.288754
C      0.13007      4.25547      4.25547         0.051430     -0.771057     -0.175799
C     10.40319      7.29314      3.19606         0.011354     -0.311348      0.301774
C     10.35913      6.23373      4.25547         0.022151      0.023143     -0.777705
C      7.29314     10.40319      3.19606        -0.280696      0.021187      0.562690
C      6.23373     10.35913      4.25547         0.171921      0.056999     -0.074279
C      7.29314      0.08601      7.29314        -0.509971     -0.066464     -0.375213
C      6.23373      0.13007      6.23373         0.685320     -0.067133      0.468565
C      3.19606      0.08601      3.19606         0.828623     -0.028656      0.587110
C      4.25547      0.13007      4.25547        -0.595555     -0.085450     -0.536892
C      3.19606     10.40319      7.29314         0.468389     -0.008559     -0.735280
C      4.25547     10.35913      6.23373        -0.302512      0.073101      0.190840
C      3.19606      7.29314     10.40319         0.298167     -1.295800      0.045366
C      4.25547      6.23373     10.35913        -0.919201      0.101301      0.130163
C      7.29314      7.29314      0.08601        -0.410843     -0.380208     -0.024349
C      6.23373      6.23373      0.13007         0.452050      0.225126     -0.009040
C      3.19606      3.19606      0.08601         0.482722      0.373891     -0.042516
C      4.25547      4.25547      0.13007        -0.152627     -0.645434     -0.036150
C      7.29314      3.19606     10.40319        -0.339843      0.449850      0.070903
C      6.23373      4.25547     10.35913         0.312440     -0.682249      0.148364
O     10.43466      3.58206      8.50569        -0.014090      0.108944      0.507627
O     10.54374     17.39634      8.50569         0.033795     -0.175410      0.496695
O     10.54374      3.58206     12.47271         0.047219     -0.100060     -0.178785
O     10.43466     17.39634     12.47271        -0.039231     -0.184203     -0.522430
O      8.50569     10.43466      3.58206         0.280614     -0.012711      0.017508
O      8.50569     10.54374     17.39634         0.623728      0.036129     -0.145024
O     12.47271     10.54374      3.58206        -0.765359      0.090326      0.097327
O     12.47271     10.43466     17.39634        -0.439456      0.022186     -0.108317
O      3.58206      8.50569     10.43466         0.154286      1.044069     -0.031106
O     17.39634      8.50569     10.54374        -0.161158      0.544370      0.076150
O      3.58206     12.47271     10.54374         0.087519     -0.374172      0.051832
O     17.39634     12.47271     10.43466        -0.155225     -0.544090     -0.023686
O      3.58206     10.43466      8.50569         0.081955     -0.070059      0.585787
O     17.39634     10.54374      8.50569        -0.110649      0.068239      0.526718
O      3.58206     10.54374     12.47271         0.016670      0.040935     -0.507272
O     17.39634     10.43466     12.47271        -0.229419     -0.039968     -0.626005
O     10.43466      8.50569      3.58206        -0.038186      0.444055      0.139744
O     10.54374      8.50569     17.39634         0.049944      0.535589     -0.157369
O     10.54374     12.47271      3.58206         0.018704     -1.041205      0.186036
O     10.43466     12.47271     17.39634         0.037514     -0.709150     -0.174823
O      8.50569      3.58206     10.43466         0.524363      0.148953     -0.056511
O      8.50569     17.39634     10.54374         0.486604     -0.194942      0.014509
O     12.47271      3.58206     10.54374        -0.624240      0.222188      0.006653
O     12.47271     17.39634     10.43466        -0.234721      0.062658     -0.048384
O     11.90042     11.90042     19.56718        -0.242831     -0.287011      0.248761
O     19.56718     19.56718     19.56718         0.309627      0.296138      0.302760
O     19.56718     11.90042     11.90042         0.297007     -0.264074     -0.234014
O     11.90042     19.56718     11.90042        -0.240389      0.294182     -0.320073
O      9.45224      1.03696      9.45224        -0.017169      0.090850     -0.073363
O      1.03696      9.45224      9.45224         0.090959     -0.090046     -0.131613
O      1.03696      1.03696      1.03696         0.093931      0.188589      0.054066
O      9.45224      9.45224      1.03696        -0.105980     -0.106090      0.037128
Zr     10.48920      2.52580     10.48920        -0.130620     -0.287235     -0.029931
Zr     10.48920     18.45260     10.48920        -0.067724      0.212218      0.063264
Zr     10.48920     10.48920      2.52580        -0.032127     -0.400936     -0.270649
Zr     10.48920     10.48920     18.45260        -0.267145     -0.106713      0.318364
Zr      2.52580     10.48920     10.48920        -0.383754      0.230601      0.249324
Zr     18.45260     10.48920     10.48920         0.232391      0.001947     -0.215493
Pd     13.57984      8.92199      9.26933         0.003062      0.007833     -0.010152
Pd      5.63836      9.87662     10.17610         0.000713     -0.000337     -0.018811
Pd      6.78832     11.85564     11.67909        -0.002413      0.000427      0.001527
Pd     12.12581     13.03131      7.33085        -0.017373     -0.000030      0.014890
Pd     11.91298      7.76314      7.42523        -0.004858     -0.009595      0.005855
Pd      8.29920      6.95437      6.58985         0.004510     -0.025524      0.003860
Pd     10.74680     11.18834      5.62400        -0.017659      0.000275      0.001689
Pd     14.43744      8.55098      6.78118        -0.007748      0.000262     -0.007027
Pd      9.69264     11.76131      8.06890        -0.002645     -0.010212      0.008110
Pd      6.77825      6.80838     12.30566         0.005815     -0.001233     -0.000090
Pd      6.45852      7.83438      8.22804         0.012849      0.031959     -0.026787
Pd      6.52668      8.50341     14.33360         0.018519      0.005417     -0.001751
Pd     11.50150      6.50589      9.84368         0.000378      0.008503      0.020911
Pd      9.57805      9.24527      7.11459        -0.007137     -0.012287     -0.000199
Pd      8.99990     14.00374      9.29555        -0.003444     -0.008849      0.006940
Pd      9.52569      7.35864     11.72963        -0.012548      0.005726      0.001689
Pd     10.57676      8.98524      9.67526         0.010671      0.004149     -0.001071
Pd      9.32665     11.52137     10.64869         0.003062     -0.003210      0.010383
Pd      8.91011      7.02913      9.15605         0.001067      0.007655      0.002605
Pd      8.55689      6.58375     14.23642        -0.000272     -0.003081      0.007099
Pd      7.68668      9.33025     11.94025        -0.003756      0.005942      0.004673
Pd     11.99717     10.40664      7.77034        -0.001635     -0.006128     -0.015945
Pd      7.14337     12.02579      9.02756        -0.001371     -0.000446      0.002663
Pd      8.08240      9.58467      9.28285         0.011681      0.006885      0.010373
Pd     14.02852      6.46657      8.49979         0.001506      0.002392      0.002773
Pd     12.50648      8.32015     11.59970         0.026271      0.014420     -0.002611
Pd      8.76129     11.59574     13.38701         0.003072     -0.015550      0.004390
Pd     13.91297     11.95243      8.97226        -0.004093     -0.001222     -0.005233
Pd     12.93744     10.65364     13.04861         0.008702      0.007303      0.000478
Pd     14.79338     10.43080     11.09763        -0.000758      0.003999     -0.004291
Pd     12.09044     10.86471     10.52136        -0.000011      0.010878     -0.003007
Pd     11.45353     13.30647      9.88554        -0.005306      0.011170      0.017673
Pd     13.60357     12.90150     11.63026        -0.003453      0.003597     -0.001136
Pd     11.11846     12.59658     12.49824        -0.000332     -0.004739      0.011609
Pd     10.94646     11.07103     14.80037         0.011105     -0.002748      0.004807
Pd     10.48012      9.77550     12.36743         0.012465     -0.009359      0.003929
Pd      9.07234      9.15215     14.40564         0.022692     -0.006722      0.014242
Pd      8.83339     13.84488     11.97529        -0.002359     -0.009097      0.009277
