152
# total energy = -1022.82189256 eVH     10.35389      5.87395      7.64558         0.477153      0.032495      0.909552
H     10.62451     15.10445      7.64558        -0.044710      0.038682      0.768243
H     10.62451      5.87395     13.33282         0.143101      0.115583     -0.604134
H     10.35389     15.10445     13.33282        -0.269455     -0.075903     -0.568034
H      7.64558     10.35389      5.87395         0.333585     -0.037130      0.191333
H      7.64558     10.62451     15.10445         0.614669     -0.187117     -0.142074
H     13.33282     10.62451      5.87395        -0.859210     -0.317548      0.167482
H     13.33282     10.35389     15.10445        -0.467754     -0.090725     -0.063466
H      5.87395      7.64558     10.35389         0.125443      1.130394     -0.143914
H     15.10445      7.64558     10.62451        -0.170469      0.403132     -0.085337
H      5.87395     13.33282     10.62451         0.142752     -0.407125     -0.071502
H     15.10445     13.33282     10.35389        -0.077095     -0.968573     -0.196504
H      5.87395     10.35389      7.64558         0.128919      0.038906      0.479628
H     15.10445     10.62451      7.64558         0.128729     -0.214618      0.807549
H      5.87395     10.62451     13.33282         0.269886     -0.027892     -0.393982
H     15.10445     10.35389     13.33282        -0.143975      0.013211     -0.623296
H     10.35389      7.64558      5.87395         0.063466      0.836619      0.121559
H     10.62451      7.64558     15.10445         0.027086      0.564484     -0.147805
H     10.62451     13.33282      5.87395         0.068441     -0.607350      0.184106
H     10.35389     13.33282     15.10445        -0.251516     -0.886068     -0.105666
H      7.64558      5.87395     10.35389         0.526581      0.038252     -0.136730
H      7.64558     15.10445     10.62451         0.912545     -0.211412      0.295982
H     13.33282      5.87395     10.62451        -0.435552      0.187457     -0.057837
H     13.33282     15.10445     10.35389        -0.998689     -0.098735      0.249143
H     12.45634     12.45634     19.01126         0.266985      0.257515     -0.224291
H     19.01126     19.01126     19.01126        -0.247831     -0.234911     -0.262324
H     19.01126     12.45634     12.45634        -0.241764      0.270107      0.239204
H     12.45634     19.01126     12.45634         0.210946     -0.283240      0.252891
C     10.35284      5.61067      6.59456        -0.132010     -0.428045     -0.415392
C     10.62556     15.36773      6.59456         0.020739      0.345701     -1.150109
C     10.62556      5.61067     14.38384        -0.026151     -0.222726      0.723752
C     10.35284     15.36773     14.38384         0.187146      0.773445      0.142896
C      6.59456     10.35284      5.61067        -0.420275     -0.041015     -0.183167
C      6.59456     10.62556     15.36773        -0.785410      0.149172      0.351826
C     14.38384     10.62556      5.61067         0.633616      0.281160     -0.364418
C     14.38384     10.35284     15.36773         0.735326     -0.122996      0.427498
C      5.61067      6.59456     10.35284        -0.427659     -0.767459      0.273874
C     15.36773      6.59456     10.62556         0.197592     -0.471053      0.045339
C      5.61067     14.38384     10.62556        -0.255165      0.380564     -0.022914
C     15.36773     14.38384     10.35284         0.405225      0.137941      0.186041
C      5.61067     10.35284      6.59456        -0.308227     -0.012661     -0.887521
C     15.36773     10.62556      6.59456         0.567764     -0.149971     -1.229863
C      5.61067     10.62556     14.38384        -0.463367      0.007540      0.903558
C     15.36773     10.35284     14.38384         0.528591     -0.175304      1.244509
C     10.35284      6.59456      5.61067        -0.038255     -0.912587     -0.675522
C     10.62556      6.59456     15.36773         0.043853     -0.669756      0.300134
C     10.62556     14.38384      5.61067         0.042772      1.255772     -0.689030
C     10.35284     14.38384     15.36773         0.092580      0.594378      0.667186
C      6.59456      5.61067     10.35284        -0.226069     -0.897313      0.127898
C      6.59456     15.36773     10.62556        -1.728539      0.495165      0.044692
C     14.38384      5.61067     10.62556         0.579706     -0.224328     -0.007515
C     14.38384     15.36773     10.35284         0.157131      0.558858     -0.237402
C     10.40319      3.19606      7.29314         0.016137      0.913454     -0.252852
C     10.35913      4.25547      6.23373        -0.051990     -0.364238      0.620566
C      0.08601      7.29314      7.29314        -0.009169     -0.237002     -0.472820
C      0.13007      6.23373      6.23373         0.002692      0.117579      0.209037
C      0.08601      3.19606      3.19606        -0.016747      0.644594      0.179930
C      0.13007      4.25547      4.25547        -0.091053     -0.200070     -0.169988
C     10.40319      7.29314      3.19606        -0.001218     -0.693954      0.530702
C     10.35913      6.23373      4.25547        -0.004339      0.522860     -0.388533
C      7.29314     10.40319      3.19606        -0.345808      0.023336      0.847747
C      6.23373     10.35913      4.25547         0.211958      0.014730     -0.143204
C      7.29314      0.08601      7.29314        -0.308544     -0.046422     -0.268740
C      6.23373      0.13007      6.23373         0.266638     -0.059309      0.292085
C      3.19606      0.08601      3.19606         0.434915     -0.052635      1.299606
C      4.25547      0.13007      4.25547        -0.116427     -0.028996     -0.462479
C      3.19606     10.40319      7.29314         0.709137      0.015306     -0.264302
C      4.25547     10.35913      6.23373        -0.137691      0.033723      0.109303
C      3.19606      7.29314     10.40319         0.604820     -1.264129      0.026115
C      4.25547      6.23373     10.35913        -0.716758      0.840737      0.047898
C      7.29314      7.29314      0.08601        -0.661353     -0.168565     -0.022733
C      6.23373      6.23373      0.13007         0.171364      0.269560     -0.009562
C      3.19606      3.19606      0.08601         0.241005      0.251085     -0.019652
C      4.25547      4.25547      0.13007        -0.052512     -0.036144      0.012478
C      7.29314      3.19606     10.40319        -0.372972      0.787332      0.016006
C      6.23373      4.25547     10.35913         0.877969     -0.157426      0.011038
O     10.43466      3.58206      8.50569        -0.050019      0.031149      0.318590
O     10.54374     17.39634      8.50569        -0.024813     -0.182916      0.605806
O     10.54374      3.58206     12.47271         0.055098      0.062034     -0.323187
O     10.43466     17.39634     12.47271        -0.024175     -0.125010     -0.582316
O      8.50569     10.43466      3.58206         0.386163     -0.023750     -0.010334
O      8.50569     10.54374     17.39634         0.470679      0.053630     -0.143233
O     12.47271     10.54374      3.58206        -0.283691      0.049573     -0.077018
O     12.47271     10.43466     17.39634        -0.855854      0.020973     -0.224459
O      3.58206      8.50569     10.43466         0.040595      0.917499      0.039517
O     17.39634      8.50569     10.54374        -0.038066      0.336260      0.078192
O      3.58206     12.47271     10.54374         0.063813     -0.420925      0.064104
O     17.39634     12.47271     10.43466        -0.170246     -0.773858      0.018890
O      3.58206     10.43466      8.50569        -0.056712     -0.066544      0.226395
O     17.39634     10.54374      8.50569        -0.136179      0.042245      0.457907
O      3.58206     10.54374     12.47271        -0.019371     -0.052164     -0.889302
O     17.39634     10.43466     12.47271        -0.197570      0.040422     -0.760603
O     10.43466      8.50569      3.58206         0.044921      0.684072      0.191794
O     10.54374      8.50569     17.39634         0.053818      0.432216     -0.078158
O     10.54374     12.47271      3.58206        -0.008802     -0.728845      0.227965
O     10.43466     12.47271     17.39634         0.049664     -0.854931     -0.277048
O      8.50569      3.58206     10.43466         0.493741      0.077254     -0.038448
O      8.50569     17.39634     10.54374         0.657807     -0.253420     -0.061362
O     12.47271      3.58206     10.54374        -0.486510      0.163185      0.039831
O     12.47271     17.39634     10.43466        -0.530105     -0.039507     -0.029757
O     11.90042     11.90042     19.56718        -0.304737     -0.312363      0.263901
O     19.56718     19.56718     19.56718         0.287283      0.271297      0.321067
O     19.56718     11.90042     11.90042         0.280587     -0.330523     -0.244747
O     11.90042     19.56718     11.90042        -0.228646      0.290545     -0.240584
O      9.45224      1.03696      9.45224        -0.074159      0.048093     -0.067008
O      1.03696      9.45224      9.45224         0.055426     -0.145300     -0.056721
O      1.03696      1.03696      1.03696         0.043763      0.032325      0.187318
O      9.45224      9.45224      1.03696        -0.039372     -0.092799      0.121928
Zr     10.48920      2.52580     10.48920        -0.008121     -0.073470     -0.022196
Zr     10.48920     18.45260     10.48920         0.059356      0.309120     -0.071763
Zr     10.48920     10.48920      2.52580        -0.104051      0.014627     -0.371954
Zr     10.48920     10.48920     18.45260        -0.136402     -0.157807      0.329311
Zr      2.52580     10.48920     10.48920        -0.347213      0.317404     -0.465560
Zr     18.45260     10.48920     10.48920         0.238168      0.040029     -0.259628
Pd      9.04274     10.26756     13.33746        -0.014195     -0.015980     -0.002006
Pd     10.59247      9.73279     10.99265        -0.015894     -0.012533     -0.042728
Pd     13.75903      8.55278     12.68348         0.004396      0.003024     -0.010386
Pd     11.00042     11.07806     15.02559        -0.000366     -0.018876     -0.006262
Pd     12.86547     11.19773     13.03705         0.011728     -0.003959      0.002278
Pd     14.97264     10.93530     11.34075         0.009729      0.013621     -0.006843
Pd      6.65873      7.43784     12.33926        -0.005848      0.023572      0.001693
Pd      9.22214      7.26532     10.13658         0.010589      0.014663     -0.030809
Pd      9.26915      7.61513     12.80695         0.003775     -0.009729     -0.023424
Pd     11.69564      7.29136     11.46650         0.005493     -0.000104     -0.007652
Pd     11.38301      7.99941      8.86109         0.041851     -0.012129     -0.008965
Pd      7.26047     11.84063     11.96300         0.002414      0.001743     -0.014129
Pd      8.90770     14.67900      9.33923         0.035150      0.007488      0.013659
Pd      8.42054     12.66301     14.32512        -0.008441     -0.007107     -0.000748
Pd     13.52536     14.08526      8.56287         0.090469      0.036657     -0.050169
Pd     10.98383     13.33636      8.52334         0.073918      0.038337      0.041105
Pd     14.08143     11.51484      8.92408         0.012585      0.035433     -0.008632
Pd      8.62621     14.11100     12.10392         0.006068     -0.005808      0.002218
Pd     12.24335     13.75063     14.02543        -0.004134     -0.009008      0.001456
Pd     11.16663     14.43055     11.15544         0.023745     -0.013707      0.044324
Pd     14.05975     13.56118     12.17232        -0.010479      0.006424     -0.004012
Pd     12.31462     12.14433     10.68021        -0.003857     -0.016767      0.015083
Pd     12.65867     12.32333      6.71901         0.018088      0.041715     -0.020544
Pd     13.64482      8.93482      7.91358         0.038079      0.008092     -0.002123
Pd      6.85930      8.46925      8.86045         0.013147      0.006467     -0.007135
Pd      5.52886      9.93469     11.26868         0.000943      0.029604     -0.046872
Pd      9.13671      9.75114      8.30481         0.040481     -0.018230     -0.012952
Pd      8.81957      7.23875      7.47799        -0.017196     -0.008913     -0.037801
Pd      9.52768     12.08520     10.43171         0.024457      0.003416      0.007465
Pd     11.52486     10.71013      8.57874         0.013270      0.005414     -0.036122
Pd     11.23452      9.24800      6.43597         0.036296     -0.020286     -0.005594
Pd      9.89486     11.56093      6.38297         0.024587     -0.022880     -0.009633
Ir     11.35602      9.11224     13.36611        -0.005560      0.011541     -0.033114
Ir     13.07394      9.47237     10.38770         0.017308      0.010195     -0.000372
Ir     10.53948     12.36148     12.71599        -0.009908     -0.016999      0.006898
Ir      7.14036     10.98647      9.51361         0.045892      0.003729     -0.021506
Ir      8.40606     12.46207      8.19440         0.061701      0.024663     -0.023105
Ir      8.07098      9.30810     11.12302         0.010415     -0.000981     -0.003438
