152
# total energy = -1060.20591055 eVH     10.35389      5.87395      7.64558        -0.322643      0.099896      1.095746
H     10.62451     15.10445      7.64558         0.061394     -0.063595      0.900688
H     10.62451      5.87395     13.33282        -0.265362      0.071376     -0.780590
H     10.35389     15.10445     13.33282         0.087222     -0.302745     -0.819670
H      7.64558     10.35389      5.87395         0.894026     -0.196327      0.207571
H      7.64558     10.62451     15.10445         0.313241     -0.030690     -0.060667
H     13.33282     10.62451      5.87395        -0.888038      0.219589      0.222857
H     13.33282     10.35389     15.10445        -0.282434     -0.029280     -0.062425
H      5.87395      7.64558     10.35389         0.093254      0.424174     -0.016502
H     15.10445      7.64558     10.62451        -0.038238      0.437066     -0.034076
H      5.87395     13.33282     10.62451        -0.026592     -0.965748      0.075037
H     15.10445     13.33282     10.35389        -0.074812     -0.328969      0.001065
H      5.87395     10.35389      7.64558         0.320349      0.061540      0.368256
H     15.10445     10.62451      7.64558        -0.120843     -0.161823      0.658501
H      5.87395     10.62451     13.33282        -0.056045      0.453846     -0.595855
H     15.10445     10.35389     13.33282         0.238190     -0.653999     -0.860701
H     10.35389      7.64558      5.87395        -0.024857      0.498145      0.344522
H     10.62451      7.64558     15.10445         0.347336      0.805579      0.002119
H     10.62451     13.33282      5.87395         0.155841     -0.560410      0.195266
H     10.35389     13.33282     15.10445         0.034893     -0.286324     -0.166048
H      7.64558      5.87395     10.35389         0.372057      0.112830      0.065371
H      7.64558     15.10445     10.62451         0.381073     -0.127747      0.180168
H     13.33282      5.87395     10.62451        -0.304485      0.136046     -0.014236
H     13.33282     15.10445     10.35389        -0.664364     -0.099649      0.132923
H     12.45634     12.45634     19.01126         0.259759      0.271547     -0.226709
H     19.01126     19.01126     19.01126        -0.247029     -0.269035     -0.244474
H     19.01126     12.45634     12.45634        -0.249113      0.271875      0.237494
H     12.45634     19.01126     12.45634         0.290275     -0.235845      0.234297
C     10.35284      5.61067      6.59456         0.407841     -0.429675     -1.360420
C     10.62556     15.36773      6.59456        -0.164145      0.607438     -0.653658
C     10.62556      5.61067     14.38384         0.365401     -0.284363      0.767156
C     10.35284     15.36773     14.38384        -0.201587      0.216516      1.018701
C      6.59456     10.35284      5.61067        -1.396176      0.034748     -0.233332
C      6.59456     10.62556     15.36773        -0.666671      0.064502      0.363963
C     14.38384     10.62556      5.61067         1.295305     -0.185316     -0.630136
C     14.38384     10.35284     15.36773         0.322905     -0.130094      0.344857
C      5.61067      6.59456     10.35284        -0.271046     -0.680853     -0.028704
C     15.36773      6.59456     10.62556         0.400048     -0.862868      0.029880
C      5.61067     14.38384     10.62556        -0.151840      1.192186     -0.216787
C     15.36773     14.38384     10.35284         0.513726      0.705463     -0.035825
C      5.61067     10.35284      6.59456        -0.372839     -0.103781     -0.789070
C     15.36773     10.62556      6.59456         0.415555      0.107107     -0.689918
C      5.61067     10.62556     14.38384        -0.421797     -0.166773      1.212293
C     15.36773     10.35284     14.38384         0.245113      0.222789      1.434422
C     10.35284      6.59456      5.61067        -0.070880     -0.745614     -0.560247
C     10.62556      6.59456     15.36773        -0.150131     -0.991625      0.375698
C     10.62556     14.38384      5.61067        -0.489876      0.367701     -0.741818
C     10.35284     14.38384     15.36773        -0.175767      0.776083      0.517861
C      6.59456      5.61067     10.35284        -0.565523     -0.333092      0.000293
C      6.59456     15.36773     10.62556        -0.366548      0.456717      0.060657
C     14.38384      5.61067     10.62556         0.430967     -0.303755      0.005565
C     14.38384     15.36773     10.35284         1.135347      0.497052     -0.078535
C     10.40319      3.19606      7.29314        -0.005972      0.744731     -0.318161
C     10.35913      4.25547      6.23373         0.018165     -0.373904      0.279116
C      0.08601      7.29314      7.29314        -0.023850     -0.377168     -0.502481
C      0.13007      6.23373      6.23373        -0.052613      0.886720      0.094345
C      0.08601      3.19606      3.19606        -0.007990      0.694635      0.264894
C      0.13007      4.25547      4.25547         0.044394     -0.266468     -0.548400
C     10.40319      7.29314      3.19606        -0.065243     -1.102236      0.591360
C     10.35913      6.23373      4.25547        -0.047314      0.328860     -0.186713
C      7.29314     10.40319      3.19606        -1.107722     -0.057709      0.203119
C      6.23373     10.35913      4.25547         0.383369      0.100214     -0.514844
C      7.29314      0.08601      7.29314        -0.460001      0.028592     -0.458970
C      6.23373      0.13007      6.23373         0.174026      0.122529      0.116803
C      3.19606      0.08601      3.19606         0.693496      0.022329      0.165891
C      4.25547      0.13007      4.25547        -0.166144     -0.048745     -0.364286
C      3.19606     10.40319      7.29314         0.360918     -0.025830     -0.952108
C      4.25547     10.35913      6.23373        -0.133196     -0.057275      0.113147
C      3.19606      7.29314     10.40319         0.612335     -0.400287      0.003541
C      4.25547      6.23373     10.35913        -0.120366      0.179396      0.013955
C      7.29314      7.29314      0.08601        -0.429517     -0.303903     -0.014766
C      6.23373      6.23373      0.13007         0.157628      0.150560     -0.059161
C      3.19606      3.19606      0.08601         0.300359      0.494993     -0.022023
C      4.25547      4.25547      0.13007        -0.404240     -0.243246     -0.029040
C      7.29314      3.19606     10.40319        -0.284241      0.601721     -0.010329
C      6.23373      4.25547     10.35913         0.017314     -0.097649      0.013484
O     10.43466      3.58206      8.50569        -0.026142      0.081096      0.297417
O     10.54374     17.39634      8.50569         0.067367     -0.122299      0.594510
O     10.54374      3.58206     12.47271         0.029732      0.101684     -0.403228
O     10.43466     17.39634     12.47271         0.095707     -0.061420     -0.412808
O      8.50569     10.43466      3.58206         0.754590     -0.074850      0.021736
O      8.50569     10.54374     17.39634         0.514634      0.058454     -0.103718
O     12.47271     10.54374      3.58206        -0.648007      0.108808      0.211941
O     12.47271     10.43466     17.39634        -0.284497      0.005575      0.034835
O      3.58206      8.50569     10.43466         0.035660      0.444070     -0.059251
O     17.39634      8.50569     10.54374        -0.053649      0.451810      0.056228
O      3.58206     12.47271     10.54374         0.102230     -0.592492      0.004319
O     17.39634     12.47271     10.43466        -0.182036     -0.745687     -0.054734
O      3.58206     10.43466      8.50569         0.213328     -0.058715      0.812895
O     17.39634     10.54374      8.50569        -0.083485      0.076990      0.506340
O      3.58206     10.54374     12.47271        -0.001560     -0.005157     -0.256542
O     17.39634     10.43466     12.47271         0.044481     -0.010814     -0.225941
O     10.43466      8.50569      3.58206        -0.107639      0.514152     -0.104324
O     10.54374      8.50569     17.39634         0.055491      0.516259     -0.091236
O     10.54374     12.47271      3.58206         0.101980     -0.642179      0.128331
O     10.43466     12.47271     17.39634        -0.070496     -0.671842     -0.264873
O      8.50569      3.58206     10.43466         0.395252      0.020920     -0.045664
O      8.50569     17.39634     10.54374         0.644126     -0.152764      0.046242
O     12.47271      3.58206     10.54374        -0.524200      0.120966      0.026665
O     12.47271     17.39634     10.43466        -0.624549     -0.125171      0.038134
O     11.90042     11.90042     19.56718        -0.281042     -0.305426      0.222761
O     19.56718     19.56718     19.56718         0.308760      0.325010      0.296426
O     19.56718     11.90042     11.90042         0.283685     -0.326975     -0.236822
O     11.90042     19.56718     11.90042        -0.314598      0.229413     -0.199838
O      9.45224      1.03696      9.45224        -0.071707      0.082183     -0.086090
O      1.03696      9.45224      9.45224         0.095065     -0.103573     -0.064653
O      1.03696      1.03696      1.03696         0.079214      0.052079      0.098677
O      9.45224      9.45224      1.03696        -0.058110     -0.126068      0.135943
Zr     10.48920      2.52580     10.48920         0.048451     -0.087760      0.127776
Zr     10.48920     18.45260     10.48920        -0.182905      0.243974     -0.365625
Zr     10.48920     10.48920      2.52580         0.110198      0.368820     -0.347255
Zr     10.48920     10.48920     18.45260        -0.067271     -0.262979      0.243973
Zr      2.52580     10.48920     10.48920        -0.234524      0.133711      0.237978
Zr     18.45260     10.48920     10.48920         0.194917     -0.140815     -0.004229
Pd      9.35876     14.28436      9.32667        -0.009717      0.030710     -0.039848
Pd      8.58766     13.63021     13.04105         0.002979      0.005705      0.025511
Pd     12.01843     14.40864      8.74019         0.017724      0.004015      0.002133
Pd     12.77456     12.88346     10.66389        -0.017758     -0.062900      0.064411
Pd     12.11917      7.19836     12.67851         0.012772      0.000024     -0.000225
Pd     11.16712     14.89356     11.45858        -0.006850      0.035627     -0.012010
Pd     10.05288     12.54296     11.10548        -0.040906      0.029679     -0.043944
Pd     13.47762     12.15321      7.97870        -0.010374      0.011660      0.012767
Pd     11.47918     11.53977      6.11500         0.024473      0.011903      0.018940
Pd      7.94525      8.39128      7.52664        -0.009312     -0.030644     -0.013736
Pd      8.72540     11.75541      6.84773        -0.012677     -0.001489      0.009462
Pd     10.32840      9.45207      8.14689        -0.010265     -0.010146      0.001559
Pd      8.50198     14.46274      6.80130        -0.005258     -0.000626     -0.012206
Pd     12.40052      9.00859      6.55938        -0.020997      0.027408      0.049433
Pd      9.71524      9.60808      5.57126         0.013233      0.015072     -0.005862
Pd      6.80071      9.44495     12.13132         0.036448      0.026943      0.015080
Pd     12.17479      6.74072      7.95043         0.020736      0.027528      0.031069
Pd      5.91786     10.48899      9.68424         0.015992      0.018420      0.001539
Pd      7.54688      7.24324     13.41030        -0.024132     -0.026071     -0.022245
Ir     11.74528      9.78736     13.06466        -0.012695     -0.039407     -0.013513
Ir     13.55661      9.05341     11.47139        -0.013377      0.013404     -0.023034
Ir      9.43391      8.85386     14.00525         0.011685      0.020954     -0.000703
Ir     10.50430     11.05499     14.85050        -0.016386     -0.046631      0.092739
Ir      7.26934     12.01850     11.33726         0.039627     -0.030282      0.021760
Ir     14.66319     10.89925     10.13038        -0.035052      0.005695      0.027528
Ir     12.16411     10.57040      9.68369         0.022991      0.036851     -0.061174
Ir      8.73324     10.98741     12.99162         0.003046     -0.023614     -0.049158
Ir     10.11130      9.91523     11.17961        -0.023970      0.033959      0.019671
Ir     13.76023     11.41318     12.46861        -0.095737      0.050704      0.015448
Ir     11.62555     12.37211     13.08154        -0.030505     -0.018783     -0.028333
Ir      8.50911     11.09507      9.34225        -0.072354      0.078952     -0.009975
Ir     11.58214      8.03157     10.14752         0.082944      0.001838     -0.011063
Ir      7.20938     13.02541      8.65136         0.043939     -0.054251      0.030980
Ir      9.54616      6.96353      9.24088        -0.029734     -0.027220     -0.030867
Ir      8.05333      8.76410     10.06122        -0.007582     -0.016645     -0.003971
Ir     10.71676     12.12786      8.50741         0.032823     -0.018621      0.004318
Ir      9.51275      7.56843     11.75634        -0.025134      0.022186      0.027442
Ir     13.66239      8.79517      8.83297        -0.014121     -0.003573      0.062587
