35
# total energy = -301.59116658 eVC      6.68855     10.29906      7.67505        -0.021162      0.011431     -0.027195
C      8.07684      9.95248      7.58945        -0.016453      0.037077      0.004872
C      9.41490      5.71712      7.63939        -0.043160     -0.021742     -0.048979
C      1.46616      5.34363      7.70265        -0.025545     -0.029625      0.015083
C      4.19096      0.75837      7.64455         0.023191      0.013172     -0.053813
C      2.80224      1.10255      7.57118        -0.032388      0.058271     -0.010024
C      0.70208      4.16372      7.66679        -0.002578      0.030270     -0.012003
C      1.08332      2.78462      7.58356        -0.085346      0.027037      0.017505
C      5.35094      1.55237      7.62469         0.058339      0.043039     -0.035646
C      5.52790      9.50613      7.71360        -0.002656      0.010121      0.014992
C     10.18004      6.89641      7.64888        -0.019989     -0.049712     -0.040034
C      9.80060      8.27580      7.57395        -0.004035     -0.001642      0.006186
C      0.78136      6.57353      7.66007        -0.048940      0.023695     -0.009355
C      1.27128      7.91772      7.57793        -0.035323     -0.038290      0.045931
C     10.10026      4.48610      7.64181         0.030444     -0.016559     -0.024585
C      9.61205      3.14138      7.54559         0.053802      0.036454      0.013583
C      4.27944     10.15917      7.67265         0.017748      0.029651     -0.011991
C      2.94738      9.63539      7.58762         0.060600      0.066509      0.039610
C      6.59953      0.89822      7.62951        -0.016920     -0.025886     -0.014158
C      7.93155      1.41996      7.53411        -0.029271     -0.070416      0.027566
N      8.80443      0.33212      7.46462        -0.003664     -0.018643      0.003563
N      0.16552      8.76525      7.48586        -0.035049     -0.020324     -0.004933
N      8.55174      8.71686      7.60227        -0.014632     -0.060179      0.050628
N      2.32939      2.34132      7.59755         0.133666     -0.056019      0.050017
N      2.07291     10.72035      7.49793         0.043657      0.041126     -0.006872
N     10.72096      2.29598      7.47817         0.011007     -0.012107     -0.016412
N      2.58515      8.31241      7.59081         0.042826     -0.040229      0.129108
N      8.29799      2.74290      7.52871        -0.040977      0.056131      0.054518
O      5.32162      2.88081      7.52513         0.037155     -0.019991     -0.044666
O      5.56297      8.17691      7.77232        -0.048536      0.008906      0.041110
O      8.08583      5.71550      7.55073         0.000237     -0.058806     -0.063222
O      2.79548      5.34357      7.76100        -0.009146      0.023253      0.040988
Zr      6.54606      4.45274      7.37771        -0.010147      0.020607      0.035258
Zr      4.34569      6.59636      7.83306         0.028051     -0.006260     -0.026135
Zr      0.02806     10.81093      6.87362         0.005191      0.009681     -0.140493
