152
# total energy = -1060.46339069 eVH     10.35389      5.87395      7.64558        -0.221898      0.135668      0.997059
H     10.62451     15.10445      7.64558         0.300309     -0.085974      0.825413
H     10.62451      5.87395     13.33282        -0.305920      0.080354     -0.741908
H     10.35389     15.10445     13.33282         0.153584     -0.278032     -0.761038
H      7.64558     10.35389      5.87395         0.868637     -0.234949      0.214509
H      7.64558     10.62451     15.10445         0.246640      0.028084     -0.058597
H     13.33282     10.62451      5.87395        -0.805064      0.103168      0.153511
H     13.33282     10.35389     15.10445        -0.299786     -0.085859     -0.031012
H      5.87395      7.64558     10.35389         0.098606      0.424338      0.009566
H     15.10445      7.64558     10.62451        -0.097599      0.580869      0.161594
H      5.87395     13.33282     10.62451         0.011035     -0.922309      0.102832
H     15.10445     13.33282     10.35389        -0.188435     -0.382472      0.026634
H      5.87395     10.35389      7.64558         0.289630      0.051365      0.367015
H     15.10445     10.62451      7.64558        -0.126964     -0.140691      0.602087
H      5.87395     10.62451     13.33282        -0.056402      0.434407     -0.700337
H     15.10445     10.35389     13.33282         0.179414     -0.449167     -0.914520
H     10.35389      7.64558      5.87395         0.020167      0.506167      0.356483
H     10.62451      7.64558     15.10445         0.229654      0.669276     -0.095668
H     10.62451     13.33282      5.87395         0.079127     -0.559313      0.212186
H     10.35389     13.33282     15.10445         0.068556     -0.348145     -0.124859
H      7.64558      5.87395     10.35389         0.403615      0.131787      0.060660
H      7.64558     15.10445     10.62451         0.388803     -0.129440      0.209008
H     13.33282      5.87395     10.62451        -0.311218      0.127768     -0.014629
H     13.33282     15.10445     10.35389        -0.640559     -0.178538      0.189891
H     12.45634     12.45634     19.01126         0.261387      0.268676     -0.222626
H     19.01126     19.01126     19.01126        -0.249761     -0.269285     -0.237156
H     19.01126     12.45634     12.45634        -0.243213      0.269123      0.241180
H     12.45634     19.01126     12.45634         0.294557     -0.226980      0.236466
C     10.35284      5.61067      6.59456         0.389450     -0.325256     -1.212743
C     10.62556     15.36773      6.59456        -0.217260      0.648333     -0.567200
C     10.62556      5.61067     14.38384         0.350282     -0.270104      0.777153
C     10.35284     15.36773     14.38384        -0.197336      0.352716      0.949359
C      6.59456     10.35284      5.61067        -1.260606      0.028336     -0.213311
C      6.59456     10.62556     15.36773        -0.638748      0.065514      0.365292
C     14.38384     10.62556      5.61067         1.370741     -0.151643     -0.616817
C     14.38384     10.35284     15.36773         0.326500     -0.132242      0.418578
C      5.61067      6.59456     10.35284        -0.262742     -0.617675     -0.015837
C     15.36773      6.59456     10.62556         0.367963     -0.870764     -0.120813
C      5.61067     14.38384     10.62556        -0.174109      1.054893     -0.257768
C     15.36773     14.38384     10.35284         0.457780      0.786658     -0.079240
C      5.61067     10.35284      6.59456        -0.295594     -0.111936     -0.595538
C     15.36773     10.62556      6.59456         0.308002      0.117219     -0.538547
C      5.61067     10.62556     14.38384        -0.297849     -0.156232      1.245719
C     15.36773     10.35284     14.38384         0.177188      0.152505      1.253647
C     10.35284      6.59456      5.61067        -0.047149     -0.701393     -0.432768
C     10.62556      6.59456     15.36773        -0.047638     -0.811673      0.375170
C     10.62556     14.38384      5.61067        -0.463838      0.387214     -0.780070
C     10.35284     14.38384     15.36773        -0.163850      0.650138      0.499472
C      6.59456      5.61067     10.35284        -0.541344     -0.318771      0.026587
C      6.59456     15.36773     10.62556        -0.289070      0.489924      0.082980
C     14.38384      5.61067     10.62556         0.409589     -0.328247      0.041446
C     14.38384     15.36773     10.35284         1.059167      0.381227     -0.109879
C     10.40319      3.19606      7.29314        -0.011920      0.897072     -0.366466
C     10.35913      4.25547      6.23373         0.043128     -0.379525      0.290450
C      0.08601      7.29314      7.29314        -0.015919     -0.510080     -0.506026
C      0.13007      6.23373      6.23373        -0.075829      0.827141      0.052997
C      0.08601      3.19606      3.19606        -0.009134      0.668411      0.266233
C      0.13007      4.25547      4.25547         0.068889     -0.249953     -0.616849
C     10.40319      7.29314      3.19606        -0.049192     -1.077328      0.764013
C     10.35913      6.23373      4.25547        -0.043246      0.347837     -0.222374
C      7.29314     10.40319      3.19606        -1.009293     -0.054042      0.269724
C      6.23373     10.35913      4.25547         0.377114      0.111064     -0.522635
C      7.29314      0.08601      7.29314        -0.719792      0.018808     -0.365787
C      6.23373      0.13007      6.23373         0.173556      0.091544      0.116444
C      3.19606      0.08601      3.19606         0.633899      0.008871      0.172259
C      4.25547      0.13007      4.25547        -0.206555     -0.086916     -0.297494
C      3.19606     10.40319      7.29314         0.497684     -0.035050     -0.954740
C      4.25547     10.35913      6.23373        -0.138710     -0.018566      0.160044
C      3.19606      7.29314     10.40319         0.667336     -0.406411      0.005886
C      4.25547      6.23373     10.35913        -0.112493      0.174090      0.000980
C      7.29314      7.29314      0.08601        -0.421659     -0.296799     -0.017293
C      6.23373      6.23373      0.13007         0.208084      0.122106     -0.131932
C      3.19606      3.19606      0.08601         0.321870      0.542175     -0.021619
C      4.25547      4.25547      0.13007        -0.437727     -0.281615     -0.011527
C      7.29314      3.19606     10.40319        -0.279978      0.620202     -0.001799
C      6.23373      4.25547     10.35913         0.015923     -0.152445      0.020513
O     10.43466      3.58206      8.50569        -0.033428      0.039488      0.244885
O     10.54374     17.39634      8.50569         0.059742     -0.074257      0.518815
O     10.54374      3.58206     12.47271         0.031637      0.107488     -0.426238
O     10.43466     17.39634     12.47271         0.086253     -0.055078     -0.495517
O      8.50569     10.43466      3.58206         0.675135     -0.078062      0.040558
O      8.50569     10.54374     17.39634         0.736069      0.084031     -0.118150
O     12.47271     10.54374      3.58206        -0.610306      0.126172      0.209408
O     12.47271     10.43466     17.39634        -0.351990     -0.000140      0.034620
O      3.58206      8.50569     10.43466         0.022210      0.442910     -0.074578
O     17.39634      8.50569     10.54374        -0.076434      0.439564      0.049900
O      3.58206     12.47271     10.54374         0.127798     -0.615525     -0.003777
O     17.39634     12.47271     10.43466        -0.228289     -0.746348     -0.016194
O      3.58206     10.43466      8.50569         0.182629     -0.044239      0.798648
O     17.39634     10.54374      8.50569        -0.002393      0.041611      0.325390
O      3.58206     10.54374     12.47271         0.000901      0.002637     -0.283221
O     17.39634     10.43466     12.47271        -0.017565     -0.000076     -0.321797
O     10.43466      8.50569      3.58206        -0.112871      0.531432     -0.088150
O     10.54374      8.50569     17.39634         0.057905      0.590854     -0.075003
O     10.54374     12.47271      3.58206         0.101630     -0.603899      0.113910
O     10.43466     12.47271     17.39634        -0.048741     -0.836513     -0.311935
O      8.50569      3.58206     10.43466         0.377672      0.021208     -0.059996
O      8.50569     17.39634     10.54374         0.607508     -0.143939      0.049577
O     12.47271      3.58206     10.54374        -0.509653      0.119722      0.027203
O     12.47271     17.39634     10.43466        -0.624296     -0.102803      0.050302
O     11.90042     11.90042     19.56718        -0.272986     -0.284144      0.222641
O     19.56718     19.56718     19.56718         0.300357      0.315012      0.290320
O     19.56718     11.90042     11.90042         0.276036     -0.315661     -0.246570
O     11.90042     19.56718     11.90042        -0.315409      0.216841     -0.203112
O      9.45224      1.03696      9.45224        -0.113782      0.138453     -0.045606
O      1.03696      9.45224      9.45224         0.144871     -0.139224     -0.044329
O      1.03696      1.03696      1.03696         0.079220      0.076098      0.086351
O      9.45224      9.45224      1.03696        -0.078267     -0.127854      0.142074
Zr     10.48920      2.52580     10.48920         0.039148     -0.152430      0.160285
Zr     10.48920     18.45260     10.48920        -0.177916      0.239424     -0.386801
Zr     10.48920     10.48920      2.52580         0.120364      0.365716     -0.287051
Zr     10.48920     10.48920     18.45260        -0.029062     -0.261817      0.289081
Zr      2.52580     10.48920     10.48920        -0.303481      0.092434      0.250048
Zr     18.45260     10.48920     10.48920         0.182713     -0.150923     -0.043256
Pd      9.33254     14.39865      9.20874        -0.049772      0.064172     -0.110288
Pd      8.59315     13.69002     13.11161        -0.010810     -0.014342      0.011447
Pd     12.03541     14.35783      8.82266        -0.025190      0.010758      0.045226
Pd     12.57178     12.84309     10.85719        -0.000100     -0.107014     -0.038972
Pd     12.09625      7.13496     12.56860         0.022367      0.043955     -0.003668
Pd     11.04558     15.06616     11.35160         0.033096      0.086012      0.005381
Pd      9.91799     12.72203     10.99771        -0.092527     -0.088788      0.076857
Pd     13.55139     12.23244      8.04951         0.033337      0.086840     -0.011573
Pd     11.53246     11.63368      6.13157         0.016555      0.031524      0.044061
Pd      7.90520      8.19973      7.50312        -0.066052      0.003205     -0.042728
Pd      8.70892     11.78652      6.82655         0.046202     -0.020941      0.037503
Pd     10.13051      9.52549      8.22121        -0.109320      0.020405     -0.023086
Pd      8.50089     14.49733      6.69291        -0.079975     -0.029365     -0.029114
Pd     12.32937      9.21743      6.90383        -0.033675      0.075068      0.042045
Pd      9.79916      9.62759      5.59417         0.073694      0.067807      0.022881
Pd      6.92192      9.45376     12.22975        -0.033720     -0.057986     -0.027193
Pd     12.27335      6.74919      7.90395        -0.008908     -0.066345      0.062610
Pd      5.88505     10.48762      9.80900        -0.064118     -0.009704     -0.006476
Pd      7.52781      7.08021     13.29297         0.050367      0.001235     -0.026243
Ir     11.54335      9.69792     13.10191         0.010091     -0.106973     -0.047396
Ir     13.41279      9.16710     11.51110        -0.076804     -0.057460      0.049319
Ir      9.24920      8.84774     14.00941        -0.111071     -0.282482      0.054013
Ir     10.39790     10.78310     15.13966         0.049117      0.090886      0.061947
Ir      7.28783     12.01044     11.42298        -0.047907      0.010272      0.060420
Ir     14.59271     11.05517     10.39272        -0.010980      0.089455      0.001019
Ir     12.25397     10.53760      9.53803        -0.046827      0.028603     -0.011687
Ir      8.91816     11.07700     12.97915        -0.030870      0.143498     -0.037852
Ir     10.09049      9.98365     11.00223         0.070900      0.009577     -0.060903
Ir     13.49942     11.40084     12.72314         0.069677      0.106336     -0.075064
Ir     11.23698     12.23600     13.17287        -0.019054     -0.046396      0.040904
Ir      8.40179     11.21264      9.32405         0.066299     -0.042670     -0.012381
Ir     11.57966      8.02503     10.06481        -0.114857     -0.039830     -0.013972
Ir      7.16718     13.12773      8.59154        -0.056833      0.128346     -0.028853
Ir      9.51257      6.97504      9.25278        -0.035602      0.007601      0.022676
Ir      8.00774      8.82197     10.01863         0.018394      0.006350     -0.054209
Ir     10.71448     12.12844      8.51512         0.038737      0.017105      0.012739
Ir      9.52182      7.67794     11.75127         0.008181     -0.067529     -0.033745
Ir     13.83374      8.63855      9.01680         0.072563     -0.068575      0.030003
