152
# total energy = -1005.20636537 eVH     10.35389      5.87395      7.64558         0.179739      0.099514      0.579286
H     10.62451     15.10445      7.64558        -0.121512     -0.145102      0.504614
H     10.62451      5.87395     13.33282         0.550191      0.073070     -0.866126
H     10.35389     15.10445     13.33282         0.016412     -0.153859     -0.394607
H      7.64558     10.35389      5.87395         0.353422      0.040126      0.167154
H      7.64558     10.62451     15.10445         0.947308      0.571495      0.023984
H     13.33282     10.62451      5.87395        -0.460192      0.343486      0.082212
H     13.33282     10.35389     15.10445        -0.842935     -0.081897     -0.007258
H      5.87395      7.64558     10.35389         0.320232      1.299320      0.040095
H     15.10445      7.64558     10.62451        -0.105183      0.508258      0.344050
H      5.87395     13.33282     10.62451         0.171624     -0.581088      0.050241
H     15.10445     13.33282     10.35389        -0.089039     -0.956281     -0.195399
H      5.87395     10.35389      7.64558         0.221296      0.052394      0.445094
H     15.10445     10.62451      7.64558        -0.143836      0.542810      0.767297
H      5.87395     10.62451     13.33282        -0.017009      0.470281     -1.107222
H     15.10445     10.35389     13.33282        -0.087247     -0.037511     -0.622761
H     10.35389      7.64558      5.87395         0.350033      1.177082      0.071847
H     10.62451      7.64558     15.10445         0.629827      0.694882     -0.211180
H     10.62451     13.33282      5.87395        -0.382974     -0.820416      0.295442
H     10.35389     13.33282     15.10445        -0.117641     -0.474901     -0.296574
H      7.64558      5.87395     10.35389         0.793530      0.064077     -0.197006
H      7.64558     15.10445     10.62451         0.809101     -0.174609      0.008466
H     13.33282      5.87395     10.62451        -0.711202      0.159459      0.546273
H     13.33282     15.10445     10.35389        -0.382070     -0.119117     -0.091225
H     12.45634     12.45634     19.01126         0.247581      0.275097     -0.230735
H     19.01126     19.01126     19.01126        -0.279347     -0.253769     -0.232770
H     19.01126     12.45634     12.45634        -0.280080      0.262412      0.216603
H     12.45634     19.01126     12.45634         0.236918     -0.259515      0.274738
C     10.35284      5.61067      6.59456        -0.274522     -0.786188     -0.166439
C     10.62556     15.36773      6.59456         0.051050      0.295552     -0.277344
C     10.62556      5.61067     14.38384        -0.141269     -0.492543      0.388483
C     10.35284     15.36773     14.38384         0.024628      0.179443      0.339014
C      6.59456     10.35284      5.61067        -0.390875      0.008810     -0.226508
C      6.59456     10.62556     15.36773        -0.793758      0.108951      0.652737
C     14.38384     10.62556      5.61067        -0.187526     -0.450770     -0.721442
C     14.38384     10.35284     15.36773         1.051881     -0.084423      0.166368
C      5.61067      6.59456     10.35284        -0.741807     -0.311340     -0.306007
C     15.36773      6.59456     10.62556         0.521114      0.072898     -0.411244
C      5.61067     14.38384     10.62556        -0.187645      0.555875     -0.003059
C     15.36773     14.38384     10.35284         0.270877      0.948988      0.022443
C      5.61067     10.35284      6.59456        -0.306013      0.017270     -0.812892
C     15.36773     10.62556      6.59456         0.512158     -0.244559      0.227219
C      5.61067     10.62556     14.38384        -0.720622      0.006787      0.744313
C     15.36773     10.35284     14.38384         0.430865     -0.037412      0.992270
C     10.35284      6.59456      5.61067        -0.143063     -0.815946     -0.574412
C     10.62556      6.59456     15.36773        -0.013978     -0.499011      0.551331
C     10.62556     14.38384      5.61067         0.190942      1.217286     -0.344184
C     10.35284     14.38384     15.36773        -0.007311      0.878218      0.389070
C      6.59456      5.61067     10.35284         0.227105     -1.081205      0.304696
C      6.59456     15.36773     10.62556        -0.949240      0.222822      0.095788
C     14.38384      5.61067     10.62556         0.285373     -0.623960     -0.350917
C     14.38384     15.36773     10.35284         0.149780      0.362120     -0.071653
C     10.40319      3.19606      7.29314         0.003732      0.891182     -0.426064
C     10.35913      4.25547      6.23373         0.066034     -0.525266      0.127215
C      0.08601      7.29314      7.29314        -0.040891     -0.910890     -0.209099
C      0.13007      6.23373      6.23373        -0.062603      0.229814      0.412043
C      0.08601      3.19606      3.19606         0.022363      1.437148      0.243706
C      0.13007      4.25547      4.25547        -0.003321     -0.575010     -0.287519
C     10.40319      7.29314      3.19606        -0.002907     -0.326913      0.258147
C     10.35913      6.23373      4.25547         0.031947      0.024352     -0.724382
C      7.29314     10.40319      3.19606        -0.276528      0.018314      0.522948
C      6.23373     10.35913      4.25547         0.129994      0.042032     -0.056824
C      7.29314      0.08601      7.29314        -0.941091     -0.079109     -0.287472
C      6.23373      0.13007      6.23373         0.839229     -0.197641      0.413206
C      3.19606      0.08601      3.19606         0.828244     -0.036146      0.541578
C      4.25547      0.13007      4.25547        -0.526070     -0.111709     -0.654585
C      3.19606     10.40319      7.29314         0.564947     -0.013710     -0.796351
C      4.25547     10.35913      6.23373        -0.251155      0.065766      0.221688
C      3.19606      7.29314     10.40319         0.312984     -1.323328      0.017119
C      4.25547      6.23373     10.35913        -1.095036      0.026552      0.121233
C      7.29314      7.29314      0.08601        -0.455613     -0.440339     -0.016581
C      6.23373      6.23373      0.13007         0.622700      0.228494      0.026225
C      3.19606      3.19606      0.08601         0.464045      0.335113     -0.038665
C      4.25547      4.25547      0.13007        -0.141749     -0.579738     -0.047632
C      7.29314      3.19606     10.40319        -0.408494      0.469861      0.054977
C      6.23373      4.25547     10.35913         0.262553     -0.762725      0.144378
O     10.43466      3.58206      8.50569        -0.022369      0.039054      0.424806
O     10.54374     17.39634      8.50569         0.070557     -0.055641      0.297553
O     10.54374      3.58206     12.47271         0.027959     -0.127018     -0.121720
O     10.43466     17.39634     12.47271        -0.024971     -0.167877     -0.517486
O      8.50569     10.43466      3.58206         0.282064     -0.022110      0.010597
O      8.50569     10.54374     17.39634         0.838012     -0.056499     -0.174943
O     12.47271     10.54374      3.58206        -0.744092      0.090339      0.073283
O     12.47271     10.43466     17.39634        -0.474870      0.037232     -0.064352
O      3.58206      8.50569     10.43466         0.157293      1.096143     -0.042286
O     17.39634      8.50569     10.54374        -0.156643      0.604104      0.064856
O      3.58206     12.47271     10.54374         0.095556     -0.434605      0.031675
O     17.39634     12.47271     10.43466        -0.144438     -0.575178     -0.031511
O      3.58206     10.43466      8.50569         0.055932     -0.092482      0.612470
O     17.39634     10.54374      8.50569        -0.007878      0.096790      0.385127
O      3.58206     10.54374     12.47271         0.040207      0.036481     -0.501863
O     17.39634     10.43466     12.47271        -0.226509     -0.043613     -0.642045
O     10.43466      8.50569      3.58206        -0.041893      0.444225      0.140214
O     10.54374      8.50569     17.39634        -0.075742      0.739009     -0.228540
O     10.54374     12.47271      3.58206         0.022741     -0.979328      0.108479
O     10.43466     12.47271     17.39634         0.067227     -0.822025     -0.226526
O      8.50569      3.58206     10.43466         0.590943      0.149769     -0.055382
O      8.50569     17.39634     10.54374         0.549352     -0.178489     -0.002265
O     12.47271      3.58206     10.54374        -0.616798      0.194844      0.001857
O     12.47271     17.39634     10.43466        -0.261416      0.074723     -0.044247
O     11.90042     11.90042     19.56718        -0.268017     -0.314798      0.219092
O     19.56718     19.56718     19.56718         0.327440      0.296333      0.230430
O     19.56718     11.90042     11.90042         0.317483     -0.259023     -0.234252
O     11.90042     19.56718     11.90042        -0.244461      0.298300     -0.338019
O      9.45224      1.03696      9.45224         0.001137      0.062301     -0.145194
O      1.03696      9.45224      9.45224         0.076985     -0.074973     -0.188025
O      1.03696      1.03696      1.03696         0.105036      0.172721      0.023202
O      9.45224      9.45224      1.03696        -0.097543     -0.113537      0.002539
Zr     10.48920      2.52580     10.48920        -0.081943     -0.206892     -0.016360
Zr     10.48920     18.45260     10.48920        -0.103396      0.180408      0.215365
Zr     10.48920     10.48920      2.52580        -0.058151     -0.457020     -0.177944
Zr     10.48920     10.48920     18.45260        -0.118596      0.057692      0.473853
Zr      2.52580     10.48920     10.48920        -0.322824      0.304015      0.347341
Zr     18.45260     10.48920     10.48920         0.156770      0.006917     -0.076948
Pd     13.63275      8.95226      9.12728        -0.014389     -0.014404      0.010070
Pd      5.68600      9.71850      9.92267         0.054187     -0.011993      0.001847
Pd      6.90396     11.24154     11.73184        -0.025890      0.096446      0.009979
Pd     12.16570     13.12341      7.37169         0.002779     -0.013250     -0.038702
Pd     12.13477      7.87028      7.15798        -0.024083     -0.027935     -0.052179
Pd      8.28745      7.08632      6.53546        -0.014453     -0.035503      0.023376
Pd     10.80752     11.31822      5.58360         0.059999     -0.015430      0.025424
Pd     14.68164      8.53037      6.69607        -0.048570      0.039397      0.004639
Pd      9.67233     11.76400      8.06181        -0.020681      0.027531     -0.042868
Pd      6.68407      6.81611     12.29862        -0.019604     -0.045438      0.025261
Pd      6.42656      7.51508      8.31515        -0.040074      0.001824     -0.041398
Pd      7.05809      8.93568     13.82350        -0.075425      0.008139      0.008025
Pd     11.71734      6.55600      9.45024        -0.010718      0.000297     -0.018395
Pd      9.77753      9.28259      6.88426         0.027825      0.002931      0.018305
Pd      9.05069     13.93962      9.43532        -0.023456      0.020938      0.046249
Pd     10.10009      7.06478     11.45456         0.023585     -0.015506      0.018878
Pd     10.56874      8.96224      9.49024        -0.002375      0.011837      0.032640
Pd      9.39344     11.23612     10.65218        -0.015659      0.013905      0.000569
Pd      8.95273      6.94316      9.08741        -0.013462      0.030358      0.005719
Pd      8.84658      7.02171     13.76463        -0.018284     -0.015837      0.056749
Pd      8.11220      8.84784     11.34192        -0.039612      0.014300      0.022952
Pd     12.01312     10.51676      7.76954        -0.037854      0.006371      0.056989
Pd      7.17652     12.01793      9.19739        -0.012406      0.071541     -0.012379
Pd      8.04161      9.56054      8.77826         0.007811     -0.017743     -0.006056
Pd     14.27918      6.51676      8.45604        -0.101401     -0.000406      0.020094
Pd     12.56616      8.28739     11.49846        -0.006395     -0.034696     -0.074077
Pd      8.85602     11.35442     13.46273        -0.028380     -0.010917      0.021265
Pd     13.89893     11.93472      9.05851        -0.008670     -0.024762     -0.015357
Pd     12.84271     10.60837     13.09313         0.022464      0.005658     -0.005691
Pd     14.69006     10.30905     11.15461         0.005702     -0.003957     -0.004980
Pd     12.03329     10.73728     10.59289         0.018321      0.021848      0.031844
Pd     11.47306     13.16987      9.90210        -0.008808     -0.000091     -0.010073
Pd     13.56634     12.82437     11.69228        -0.016077      0.040883     -0.018389
Pd     11.01918     12.58812     12.45752         0.002219     -0.034062     -0.016059
Pd     11.12412     11.39232     14.89631        -0.021818      0.005398      0.002806
Pd     10.47032      9.46697     12.62012         0.015251      0.026076     -0.004576
Pd      9.44714      9.35518     15.10597         0.021650     -0.045381     -0.012302
Pd      8.54456     13.48998     11.99684         0.088196      0.011878     -0.034480
