152
# total energy = -1110.37883762 eVH     10.35389      5.87395      7.64558        -0.359048     -0.143789      1.073016
H     10.62451     15.10445      7.64558         0.358214      0.082443      0.936786
H     10.62451      5.87395     13.33282        -0.317700     -0.698445     -1.383570
H     10.35389     15.10445     13.33282        -0.614876      0.405116     -0.326487
H      7.64558     10.35389      5.87395         0.546297     -0.531126     -0.089415
H      7.64558     10.62451     15.10445         0.371796     -0.239914      0.043461
H     13.33282     10.62451      5.87395        -0.549688      0.628504     -0.031170
H     13.33282     10.35389     15.10445        -0.528329      0.407504      0.161963
H      5.87395      7.64558     10.35389         0.146397      0.527769      0.033095
H     15.10445      7.64558     10.62451         0.431612      0.940324      0.263673
H      5.87395     13.33282     10.62451        -0.224937     -0.474493      0.362631
H     15.10445     13.33282     10.35389         0.029310     -0.305372     -0.385634
H      5.87395     10.35389      7.64558        -0.082755     -0.374030      1.450648
H     15.10445     10.62451      7.64558         0.211872      0.461729      1.292852
H      5.87395     10.62451     13.33282        -0.182677     -0.355232     -1.168969
H     15.10445     10.35389     13.33282         0.575581      0.937080     -1.526080
H     10.35389      7.64558      5.87395        -0.552493      0.506915     -0.184539
H     10.62451      7.64558     15.10445        -0.138897      0.501207      0.181874
H     10.62451     13.33282      5.87395         0.888876     -1.374079     -0.321964
H     10.35389     13.33282     15.10445         0.258010     -0.555442     -0.089155
H      7.64558      5.87395     10.35389         0.717129      0.171527     -0.154593
H      7.64558     15.10445     10.62451         1.977743      0.783472      0.206606
H     13.33282      5.87395     10.62451        -2.688500     -0.959255     -0.467387
H     13.33282     15.10445     10.35389        -0.875395     -0.048829     -0.252400
H     12.45634     12.45634     19.01126         0.271960      0.257662     -0.227241
H     19.01126     19.01126     19.01126        -0.266768     -0.255027     -0.238277
H     19.01126     12.45634     12.45634        -0.283136      0.281059      0.186436
H     12.45634     19.01126     12.45634         0.256104     -0.251461      0.235975
C     10.35284      5.61067      6.59456         0.084813     -0.502682     -1.233746
C     10.62556     15.36773      6.59456         0.174283      0.761050     -0.827095
C     10.62556      5.61067     14.38384         0.181023     -0.311555      1.805778
C     10.35284     15.36773     14.38384         0.104497      0.389345      1.804190
C      6.59456     10.35284      5.61067        -1.128276     -0.110863     -0.864212
C      6.59456     10.62556     15.36773        -0.692380     -0.101780      0.760551
C     14.38384     10.62556      5.61067         0.866470     -0.112322     -1.000993
C     14.38384     10.35284     15.36773         1.200072      0.166560      1.106416
C      5.61067      6.59456     10.35284        -0.676320     -0.854593     -0.175969
C     15.36773      6.59456     10.62556         1.969969     -0.248743     -0.184229
C      5.61067     14.38384     10.62556        -1.573754     -0.009559     -0.127700
C     15.36773     14.38384     10.35284         0.485800      0.068234      0.016675
C      5.61067     10.35284      6.59456        -0.273628      0.202321     -1.348460
C     15.36773     10.62556      6.59456         0.284113     -0.230795     -0.997232
C      5.61067     10.62556     14.38384        -0.263454      0.414839      1.440834
C     15.36773     10.35284     14.38384         0.047582     -0.449756      1.929062
C     10.35284      6.59456      5.61067        -0.183576     -0.890456     -0.688419
C     10.62556      6.59456     15.36773        -0.108833     -0.767279      1.050990
C     10.62556     14.38384      5.61067        -0.496868      2.019452     -0.774658
C     10.35284     14.38384     15.36773        -0.279333      1.423051      0.485435
C      6.59456      5.61067     10.35284        -0.969237     -0.412973      0.084813
C      6.59456     15.36773     10.62556        -1.303009      0.364882     -0.332013
C     14.38384      5.61067     10.62556         1.290771     -1.237865      0.177328
C     14.38384     15.36773     10.35284         0.432515      0.314960      0.069548
C     10.40319      3.19606      7.29314         0.002109      0.308699     -0.102792
C     10.35913      4.25547      6.23373         0.139862     -0.535249      0.018993
C      0.08601      7.29314      7.29314        -0.053504     -0.298291     -0.426589
C      0.13007      6.23373      6.23373        -0.123529      0.701940      0.032439
C      0.08601      3.19606      3.19606        -0.107834      1.636874      0.171798
C      0.13007      4.25547      4.25547        -0.088193     -0.403326     -1.231659
C     10.40319      7.29314      3.19606         0.016239     -0.432707      0.125946
C     10.35913      6.23373      4.25547         0.261600      0.081836     -0.507522
C      7.29314     10.40319      3.19606        -1.673680      0.006979      0.325977
C      6.23373     10.35913      4.25547         0.658223      0.077982     -0.612796
C      7.29314      0.08601      7.29314        -0.404663     -0.012296     -0.306155
C      6.23373      0.13007      6.23373         0.674003     -0.055210      0.264396
C      3.19606      0.08601      3.19606         0.659509     -0.016751      0.185311
C      4.25547      0.13007      4.25547        -0.370643     -0.073433     -0.525100
C      3.19606     10.40319      7.29314         0.368749      0.019376     -0.317311
C      4.25547     10.35913      6.23373        -0.729357      0.066461      0.368137
C      3.19606      7.29314     10.40319         0.295767     -0.211499     -0.006372
C      4.25547      6.23373     10.35913         0.048344      0.643754      0.092349
C      7.29314      7.29314      0.08601        -0.718328     -0.604581     -0.020196
C      6.23373      6.23373      0.13007         0.861616      1.131198     -0.073784
C      3.19606      3.19606      0.08601         0.814950      0.500967      0.008955
C      4.25547      4.25547      0.13007        -0.325677     -1.740890     -0.125668
C      7.29314      3.19606     10.40319        -0.330010      0.275519     -0.003694
C      6.23373      4.25547     10.35913         0.512035     -0.029010      0.230200
O     10.43466      3.58206      8.50569        -0.048096      0.182675      0.258310
O     10.54374     17.39634      8.50569         0.041844     -0.233360      0.485581
O     10.54374      3.58206     12.47271         0.084435     -0.064357     -0.035505
O     10.43466     17.39634     12.47271        -0.023030     -0.141192     -0.275759
O      8.50569     10.43466      3.58206         0.986976      0.184702      0.385426
O      8.50569     10.54374     17.39634         0.572243      0.084082     -0.228262
O     12.47271     10.54374      3.58206        -0.423395     -0.039241      0.186658
O     12.47271     10.43466     17.39634        -0.517561     -0.069995     -0.197084
O      3.58206      8.50569     10.43466         0.181703      0.432112     -0.030030
O     17.39634      8.50569     10.54374        -0.229917      0.714101      0.044039
O      3.58206     12.47271     10.54374         0.160517     -0.673890      0.025044
O     17.39634     12.47271     10.43466        -0.185645     -0.480367     -0.011971
O      3.58206     10.43466      8.50569         0.224021     -0.059969      0.401866
O     17.39634     10.54374      8.50569        -0.170442      0.036818      0.410912
O      3.58206     10.54374     12.47271         0.146074      0.021003     -0.305808
O     17.39634     10.43466     12.47271         0.072303     -0.050446     -0.082079
O     10.43466      8.50569      3.58206         0.000538      0.275000      0.181039
O     10.54374      8.50569     17.39634         0.070731      0.435721     -0.179639
O     10.54374     12.47271      3.58206        -0.222353     -0.970199      0.342280
O     10.43466     12.47271     17.39634        -0.083932     -0.449885     -0.245139
O      8.50569      3.58206     10.43466         0.494802      0.196062     -0.011959
O      8.50569     17.39634     10.54374         0.662145     -0.198183      0.022245
O     12.47271      3.58206     10.54374        -0.740935      0.278475      0.036842
O     12.47271     17.39634     10.43466        -0.438517     -0.202641     -0.044027
O     11.90042     11.90042     19.56718        -0.346125     -0.307646      0.259442
O     19.56718     19.56718     19.56718         0.325232      0.311221      0.282609
O     19.56718     11.90042     11.90042         0.276864     -0.276722     -0.140223
O     11.90042     19.56718     11.90042        -0.306268      0.285971     -0.233725
O      9.45224      1.03696      9.45224        -0.058828      0.071671     -0.047242
O      1.03696      9.45224      9.45224         0.035598     -0.073951     -0.071963
O      1.03696      1.03696      1.03696         0.059261      0.142268      0.101451
O      9.45224      9.45224      1.03696        -0.135674     -0.092369      0.101425
Zr     10.48920      2.52580     10.48920         0.153019     -0.167654     -0.163244
Zr     10.48920     18.45260     10.48920        -0.096870      0.181566     -0.045401
Zr     10.48920     10.48920      2.52580         0.333136     -0.309832     -0.198688
Zr     10.48920     10.48920     18.45260         0.007194     -0.086660      0.206146
Zr      2.52580     10.48920     10.48920        -0.067314      0.170526     -0.051567
Zr     18.45260     10.48920     10.48920         0.140540     -0.126917     -0.249326
Ir     12.05069     12.48645     10.46053        -0.005125      0.000601     -0.000931
Ir     11.18602      7.41641     10.29413         0.022488     -0.003885     -0.011108
Ir      8.83106      7.37340     11.56265         0.014743     -0.005491     -0.013300
Ir      7.47952     11.65607      7.65779        -0.002592     -0.002702      0.001104
Ir     11.59542     12.08680      7.12127         0.001376     -0.002396     -0.007648
Ir     13.76070      8.98522      7.54886         0.011485      0.002209     -0.007542
Ir     12.48931     13.95417      8.41674        -0.002570      0.004156     -0.001733
Ir      9.72633     11.26178      5.55939         0.004848      0.000138     -0.004570
Ir      9.08137     13.46227      7.07609        -0.003007     -0.005219      0.005610
Ir      9.28145      9.66572      7.52321        -0.006915     -0.001986     -0.015640
Ir     13.27327      7.03952     11.95424         0.002360      0.006286      0.008016
Ir     13.58615      7.03337      9.11648         0.023161      0.006430     -0.002564
Ir     11.03301      7.60091     12.84073         0.006726     -0.004262     -0.017769
Ir     13.60939     11.56148      8.75527         0.003614      0.006539     -0.000651
Ir     11.50508      9.64628      6.23283        -0.000458     -0.006826     -0.008935
Ir      7.15243      9.17583      8.93758        -0.004848     -0.013026     -0.009896
Ir     14.06054     11.42863     11.65872        -0.004514      0.004771     -0.004457
Ir     11.65594      9.85530      8.88819        -0.003248     -0.011881     -0.008795
Ir      9.43420      9.51798     10.24425         0.004568     -0.008755     -0.000870
Ir     13.86597      9.40180     10.18352         0.012657      0.005089     -0.002524
Ir     13.81692      9.15728     12.90429         0.002124     -0.000847     -0.014867
Ir     11.69131      9.76329     11.56332         0.003434     -0.002047     -0.003890
Ir      9.91369     11.74734      8.97351         0.001578     -0.004021     -0.002542
Ir      9.06591      7.43570      8.82116         0.021763      0.001965     -0.017900
Ir     11.55993      7.56738      7.76869         0.032128     -0.020843     -0.021180
Ir      9.25060      9.49041     13.01687         0.009725     -0.006795     -0.012926
Ir      7.51947     13.91430      8.99284        -0.000345     -0.007221      0.000021
Ir     10.88934     14.11619     11.94882        -0.010236     -0.008012      0.002385
Ir     10.12040     14.16384      9.52034        -0.005454     -0.008699     -0.001016
Ir      9.79686     11.69723     11.72760        -0.000393     -0.014811      0.002715
Ir      7.59037     11.58510     10.21114        -0.001194     -0.011945      0.001296
Ir      8.36166     13.75643     11.58491        -0.005303     -0.008626      0.000281
Ir      7.52775     11.57817     12.82831         0.004095     -0.015350     -0.003374
Ir      9.77067     11.62099     14.34471         0.004868     -0.010104     -0.000768
Ir     13.48647     13.88083     12.19118        -0.005742     -0.001589     -0.001075
Ir     11.99433     12.05458     13.08490        -0.002581     -0.010002     -0.007416
Ir     11.57553      9.80600     14.20263        -0.000345     -0.003306     -0.019483
Ir      7.14792      9.38145     11.49687         0.006329     -0.013672     -0.002625
