37
# total energy = -267.21935564 eVH      6.13890     10.67833      7.49840         0.000000     -0.015176     -0.000000
H      6.13890      1.59947      7.49840         0.000000      0.015176      0.000000
H      1.59947      6.13890      7.49840         0.015176      0.000000      0.000000
H     10.67833      6.13890      7.49840        -0.015176      0.000000      0.000000
C      6.13890      9.59239      7.49840        -0.000000      0.029112     -0.000000
C      6.13890      2.68541      7.49840        -0.000000     -0.029112     -0.000000
C      2.68541      6.13890      7.49840        -0.029112     -0.000000     -0.000000
C      9.59239      6.13890      7.49840         0.029112      0.000000     -0.000000
C      3.25348      7.39495      7.49840         0.011512      0.005579     -0.000000
C      9.02432      4.88285      7.49840        -0.011512     -0.005579      0.000000
C      4.88285      3.25348      7.49840        -0.005579      0.011512     -0.000000
C      7.39495      9.02432      7.49840         0.005579     -0.011512     -0.000000
C      9.02432      7.39495      7.49840        -0.011512      0.005579     -0.000000
C      3.25348      4.88285      7.49840         0.011512     -0.005579     -0.000000
C      7.39495      3.25348      7.49840         0.005579      0.011512      0.000000
C      4.88285      9.02432      7.49840        -0.005579     -0.011512      0.000000
C     11.54199      0.73581      7.49840        -0.020735      0.020735     -0.000000
C      0.73581     11.54199      7.49840         0.020735     -0.020735     -0.000000
C     11.54199     11.54199      7.49840        -0.020735     -0.020735     -0.000000
C      0.73581      0.73581      7.49840         0.020735      0.020735     -0.000000
N      4.60223      7.67557      7.49840         0.017176     -0.017176     -0.000000
N      7.67557      4.60223      7.49840        -0.017176      0.017176      0.000000
N      4.60223      4.60223      7.49840         0.017176      0.017176      0.000000
N      7.67557      7.67557      7.49840        -0.017176     -0.017176     -0.000000
O      8.27992     10.02562      7.49840        -0.004596     -0.001473      0.000000
O      3.99788      2.25218      7.49840         0.004596      0.001473      0.000000
O      2.25218      8.27992      7.49840         0.001473     -0.004596      0.000000
O     10.02562      3.99788      7.49840        -0.001473      0.004596     -0.000000
O      3.99788     10.02562      7.49840         0.004596     -0.001473      0.000000
O      8.27992      2.25218      7.49840        -0.004596      0.001473     -0.000000
O     10.02562      8.27992      7.49840        -0.001473     -0.004596     -0.000000
O      2.25218      3.99788      7.49840         0.001473      0.004596      0.000000
Ir     10.18135      2.09645      7.49840        -0.014121      0.014121      0.000000
Ir      2.09645     10.18135      7.49840         0.014121     -0.014121     -0.000000
Ir     10.18135     10.18135      7.49840        -0.014121     -0.014121     -0.000000
Ir      2.09645      2.09645      7.49840         0.014121      0.014121      0.000000
Ir      6.13890      6.13890      7.49840        -0.000000     -0.000000      0.000000
