26
# total energy = -208.95106207 eVC      8.64716      1.68542      0.00000        -0.060846      0.005507     -0.000000
C      0.68926      7.65100      0.00000         0.060846     -0.005507      0.000000
C      7.65100      8.64716      0.00000        -0.005507     -0.060846     -0.000000
C      1.68542      0.68926     -0.00000         0.005507      0.060846     -0.000000
C      0.68926      1.68542     -0.00000         0.060846      0.005507      0.000000
C      8.64716      7.65100     -0.00000        -0.060846     -0.005507     -0.000000
C      1.68542      8.64716     -0.00000         0.005507     -0.060846     -0.000000
C      7.65100      0.68926     -0.00000        -0.005507      0.060846      0.000000
C      8.04041      2.97859     -0.00000        -0.008229     -0.017114      0.000000
C      1.29601      6.35783     -0.00000         0.008229      0.017114     -0.000000
C      6.35783      8.04041     -0.00000         0.017114     -0.008229     -0.000000
C      2.97859      1.29601     -0.00000        -0.017114      0.008229      0.000000
C      1.29601      2.97859      0.00000         0.008229     -0.017114     -0.000000
C      8.04041      6.35783      0.00000        -0.008229      0.017114      0.000000
C      2.97859      8.04041      0.00000        -0.017114     -0.008229      0.000000
C      6.35783      1.29601      0.00000         0.017114      0.008229      0.000000
N      2.66856      6.66786     -0.00000        -0.020094      0.020094      0.000000
N      6.66786      2.66856     -0.00000         0.020094     -0.020094      0.000000
N      2.66856      2.66856     -0.00000        -0.020094     -0.020094      0.000000
N      6.66786      6.66786      0.00000         0.020094      0.020094      0.000000
Ir     -0.00000      4.66821     -0.00000         0.000000      0.000000      0.000000
Ir      4.66821      0.00000     -0.00000         0.000000      0.000000      0.000000
Ir      4.66821      6.44082      0.00000         0.000000     -0.015441      0.000000
Ir      4.66821      2.89560     -0.00000         0.000000      0.015441      0.000000
Ir      2.89560      4.66821     -0.00000         0.015441      0.000000      0.000000
Ir      6.44082      4.66821      0.00000        -0.015441      0.000000      0.000000
