152
# total energy = -1004.83676773 eVH     10.35389      5.87395      7.64558         0.059647      0.074228      0.632194
H     10.62451     15.10445      7.64558        -0.120013     -0.153161      0.505448
H     10.62451      5.87395     13.33282         0.458734      0.037773     -0.843174
H     10.35389     15.10445     13.33282         0.034735     -0.158815     -0.449909
H      7.64558     10.35389      5.87395         0.341693      0.027189      0.158673
H      7.64558     10.62451     15.10445         0.965697      0.569115      0.028458
H     13.33282     10.62451      5.87395        -0.547456      0.349483      0.023544
H     13.33282     10.35389     15.10445        -0.957523     -0.245543      0.144603
H      5.87395      7.64558     10.35389         0.290979      1.355217      0.168791
H     15.10445      7.64558     10.62451        -0.106261      0.537234      0.264338
H      5.87395     13.33282     10.62451         0.183437     -0.560952      0.020192
H     15.10445     13.33282     10.35389         0.001599     -1.051355     -0.331367
H      5.87395     10.35389      7.64558         0.191219      0.039907      0.445180
H     15.10445     10.62451      7.64558        -0.132544      0.588238      0.812578
H      5.87395     10.62451     13.33282        -0.044548      0.621177     -1.327598
H     15.10445     10.35389     13.33282        -0.009089     -0.134715     -0.691871
H     10.35389      7.64558      5.87395         0.109979      1.371322      0.039278
H     10.62451      7.64558     15.10445         0.569289      0.728171     -0.135980
H     10.62451     13.33282      5.87395        -0.365656     -0.773015      0.290841
H     10.35389     13.33282     15.10445        -0.162979     -0.462495     -0.315521
H      7.64558      5.87395     10.35389         0.864863      0.020474     -0.177114
H      7.64558     15.10445     10.62451         0.810688     -0.179714      0.005832
H     13.33282      5.87395     10.62451        -0.604989      0.168910      0.510753
H     13.33282     15.10445     10.35389        -0.435156     -0.088104     -0.155009
H     12.45634     12.45634     19.01126         0.256370      0.270516     -0.229679
H     19.01126     19.01126     19.01126        -0.277962     -0.261127     -0.223539
H     19.01126     12.45634     12.45634        -0.277249      0.259560      0.221374
H     12.45634     19.01126     12.45634         0.238398     -0.268568      0.263516
C     10.35284      5.61067      6.59456        -0.306604     -0.791378     -0.025728
C     10.62556     15.36773      6.59456         0.030930      0.231171     -0.312403
C     10.62556      5.61067     14.38384        -0.069636     -0.453743      0.507975
C     10.35284     15.36773     14.38384         0.009078      0.288090      0.421844
C      6.59456     10.35284      5.61067        -0.359805      0.020355     -0.191116
C      6.59456     10.62556     15.36773        -0.998384      0.189226      0.767945
C     14.38384     10.62556      5.61067         0.212159     -0.353733     -0.736875
C     14.38384     10.35284     15.36773         1.137711     -0.076102      0.222289
C      5.61067      6.59456     10.35284        -0.723673     -0.328508     -0.249082
C     15.36773      6.59456     10.62556         0.607174     -0.098184     -0.309958
C      5.61067     14.38384     10.62556        -0.188500      0.593285      0.003202
C     15.36773     14.38384     10.35284         0.276666      1.008260      0.069028
C      5.61067     10.35284      6.59456        -0.275588      0.012690     -0.767289
C     15.36773     10.62556      6.59456         0.543035     -0.162152      0.114752
C      5.61067     10.62556     14.38384        -0.767065      0.015129      0.927135
C     15.36773     10.35284     14.38384         0.525479     -0.105735      1.032833
C     10.35284      6.59456      5.61067        -0.060185     -0.827282     -0.533787
C     10.62556      6.59456     15.36773         0.090662     -0.607040      0.487029
C     10.62556     14.38384      5.61067         0.121586      1.170511     -0.290630
C     10.35284     14.38384     15.36773        -0.019070      0.985288      0.517821
C      6.59456      5.61067     10.35284         0.119314     -1.103807      0.335428
C      6.59456     15.36773     10.62556        -0.988294      0.181251      0.098163
C     14.38384      5.61067     10.62556         0.046917     -0.468153     -0.391100
C     14.38384     15.36773     10.35284         0.169688      0.451184     -0.069050
C     10.40319      3.19606      7.29314         0.014274      1.039211     -0.446996
C     10.35913      4.25547      6.23373         0.082947     -0.641156      0.088650
C      0.08601      7.29314      7.29314        -0.031953     -0.939689     -0.172320
C      0.13007      6.23373      6.23373        -0.074254      0.248498      0.355192
C      0.08601      3.19606      3.19606         0.033564      1.338555      0.202821
C      0.13007      4.25547      4.25547        -0.027767     -0.444102     -0.323636
C     10.40319      7.29314      3.19606         0.006400     -0.404563      0.285712
C     10.35913      6.23373      4.25547         0.027370      0.034289     -0.873545
C      7.29314     10.40319      3.19606        -0.258641      0.019590      0.571021
C      6.23373     10.35913      4.25547         0.158364      0.073253     -0.097563
C      7.29314      0.08601      7.29314        -1.140385     -0.089082     -0.273742
C      6.23373      0.13007      6.23373         0.841224     -0.209966      0.386457
C      3.19606      0.08601      3.19606         1.018504     -0.029511      0.554873
C      4.25547      0.13007      4.25547        -0.632034     -0.166165     -0.608432
C      3.19606     10.40319      7.29314         0.606931      0.006633     -0.622908
C      4.25547     10.35913      6.23373        -0.288256      0.105232      0.241192
C      3.19606      7.29314     10.40319         0.334029     -1.114353      0.029118
C      4.25547      6.23373     10.35913        -1.094700      0.045668      0.138787
C      7.29314      7.29314      0.08601        -0.443540     -0.437319     -0.015853
C      6.23373      6.23373      0.13007         0.492342      0.290314      0.025971
C      3.19606      3.19606      0.08601         0.446377      0.362351     -0.034762
C      4.25547      4.25547      0.13007        -0.078293     -0.594058     -0.069673
C      7.29314      3.19606     10.40319        -0.387046      0.492468      0.061684
C      6.23373      4.25547     10.35913         0.323433     -0.756142      0.187123
O     10.43466      3.58206      8.50569        -0.032369      0.007550      0.411407
O     10.54374     17.39634      8.50569         0.068761     -0.044506      0.263867
O     10.54374      3.58206     12.47271         0.015839     -0.099679     -0.117802
O     10.43466     17.39634     12.47271        -0.033156     -0.157117     -0.531747
O      8.50569     10.43466      3.58206         0.294186     -0.019865      0.017795
O      8.50569     10.54374     17.39634         0.911225     -0.074659     -0.170611
O     12.47271     10.54374      3.58206        -0.829641      0.096692      0.073122
O     12.47271     10.43466     17.39634        -0.541451      0.025871     -0.089501
O      3.58206      8.50569     10.43466         0.179111      1.009143     -0.033729
O     17.39634      8.50569     10.54374        -0.148212      0.616773      0.054862
O      3.58206     12.47271     10.54374         0.101089     -0.489219      0.039324
O     17.39634     12.47271     10.43466        -0.153195     -0.594961     -0.030903
O      3.58206     10.43466      8.50569         0.079230     -0.081091      0.575179
O     17.39634     10.54374      8.50569         0.038469      0.107127      0.339722
O      3.58206     10.54374     12.47271         0.010396      0.038019     -0.478405
O     17.39634     10.43466     12.47271        -0.233220     -0.034278     -0.694771
O     10.43466      8.50569      3.58206        -0.043354      0.505019      0.144960
O     10.54374      8.50569     17.39634        -0.077826      0.739598     -0.207804
O     10.54374     12.47271      3.58206         0.048455     -0.975211      0.160633
O     10.43466     12.47271     17.39634         0.079888     -0.904291     -0.235673
O      8.50569      3.58206     10.43466         0.571234      0.142256     -0.058918
O      8.50569     17.39634     10.54374         0.542725     -0.167141     -0.002932
O     12.47271      3.58206     10.54374        -0.622380      0.167938      0.018238
O     12.47271     17.39634     10.43466        -0.338435      0.015368     -0.046606
O     11.90042     11.90042     19.56718        -0.290678     -0.310710      0.221823
O     19.56718     19.56718     19.56718         0.317733      0.305117      0.212109
O     19.56718     11.90042     11.90042         0.318256     -0.264101     -0.239148
O     11.90042     19.56718     11.90042        -0.251371      0.319171     -0.315615
O      9.45224      1.03696      9.45224        -0.010734      0.063174     -0.154927
O      1.03696      9.45224      9.45224         0.068885     -0.054855     -0.179052
O      1.03696      1.03696      1.03696         0.098474      0.146709      0.035344
O      9.45224      9.45224      1.03696        -0.090101     -0.089504      0.015961
Zr     10.48920      2.52580     10.48920        -0.054182     -0.191571     -0.000851
Zr     10.48920     18.45260     10.48920        -0.063081      0.135781      0.228243
Zr     10.48920     10.48920      2.52580        -0.142255     -0.445737     -0.209233
Zr     10.48920     10.48920     18.45260         0.007740      0.036196      0.511622
Zr      2.52580     10.48920     10.48920        -0.291448      0.215269      0.222246
Zr     18.45260     10.48920     10.48920         0.172635     -0.015427     -0.037554
Pd     13.48761      8.77240      9.34533        -0.041551     -0.086369      0.015275
Pd      5.85633      9.75671     10.02592        -0.123666     -0.063796     -0.056403
Pd      6.90906     11.44670     11.74615         0.146043     -0.038338      0.104963
Pd     12.16897     13.11391      7.41988         0.083385      0.009333     -0.042299
Pd     12.16732      7.64993      6.93419        -0.052098      0.126892      0.160237
Pd      8.34142      7.09220      6.67671         0.095807      0.072066      0.129921
Pd     11.03808     11.32794      5.60122        -0.031065      0.014840      0.008846
Pd     14.61075      8.57494      6.92504         0.077174      0.054926     -0.056085
Pd      9.88927     11.67676      8.13922        -0.230473      0.100060      0.056421
Pd      6.80338      6.84071     12.27557        -0.064982     -0.019952     -0.183878
Pd      6.39857      7.52700      8.37387        -0.003691     -0.120185     -0.054205
Pd      7.06134      9.05366     13.66804         0.262334     -0.177206     -0.120748
Pd     11.63392      6.55841      9.29710         0.069460      0.023725     -0.057896
Pd      9.92747      9.31289      6.86351         0.013174     -0.122107     -0.149012
Pd      9.05421     13.91160      9.48118         0.046961     -0.035535     -0.170961
Pd     10.48428      7.29670     11.46689        -0.045245      0.168099      0.293525
Pd     10.60413      9.07455      9.45793         0.293738      0.020032      0.030226
Pd      9.41909     11.28029     10.74884        -0.110820      0.119019     -0.018134
Pd      8.96963      7.02723      9.27499        -0.063791     -0.209822     -0.274431
Pd      9.00815      7.27491     13.61378        -0.109427      0.080787     -0.072460
Pd      8.22619      8.88852     11.21723        -0.042807     -0.027922      0.606237
Pd     12.24767     10.37578      7.72720        -0.223918     -0.167368     -0.202843
Pd      7.27022     11.99317      9.17627         0.072240     -0.043628     -0.019653
Pd      8.08492      9.53265      8.65819        -0.016911      0.316170     -0.249342
Pd     14.16061      6.37496      8.40844         0.001159      0.057325      0.124455
Pd     12.82594      8.50368     11.90037        -0.183121     -0.076288     -0.076124
Pd      8.82207     11.45517     13.54017        -0.059796      0.070028     -0.121951
Pd     13.83138     11.92165      9.08820         0.205601      0.207850      0.003010
Pd     12.99354     10.96258     13.25232         0.108139     -0.186318     -0.180793
Pd     14.72928     10.42977     11.14160         0.023437     -0.103598      0.057303
Pd     12.07618     10.76499     10.72777        -0.193534     -0.222870      0.112932
Pd     11.47024     13.16710      9.95898         0.036743      0.117991     -0.059164
Pd     13.60270     12.98460     11.65144        -0.022614      0.128180      0.005719
Pd     11.07428     12.66367     12.53556        -0.189902      0.101354     -0.081811
Pd     11.07732     11.45022     14.96929        -0.031782     -0.031718      0.120882
Pd     10.58388      9.69068     12.80021         0.112427     -0.328530     -0.251266
Pd      9.36614      9.40632     15.21444         0.125114      0.035880      0.002169
Pd      8.64526     13.62046     12.05367        -0.007378     -0.123384      0.084237
