35
# total energy = -301.58190826 eVC      6.68708     10.29570      7.65355        -0.004945      0.001953      0.004350
C      8.07371      9.94452      7.58049         0.015383     -0.009476      0.000954
C      9.41763      5.71071      7.65034         0.016781     -0.011845     -0.002930
C      1.46321      5.34655      7.67057        -0.014351      0.018604      0.001751
C      4.19536      0.76211      7.63617         0.003135     -0.001597      0.000540
C      2.80828      1.11273      7.56637        -0.011786      0.001618     -0.001382
C      0.70462      4.16478      7.64645         0.002599      0.011227      0.005726
C      1.09056      2.78742      7.57282        -0.008187     -0.003084     -0.000164
C      5.35801      1.54975      7.64598         0.023908     -0.008299     -0.004961
C      5.52428      9.50849      7.67438        -0.025738      0.001786      0.000247
C     10.17687      6.89250      7.64385        -0.004789     -0.014791     -0.000093
C      9.79165      8.27035      7.57551         0.018290     -0.000748     -0.001866
C      0.77691      6.57629      7.64872        -0.002753     -0.002149      0.003173
C      1.26259      7.92302      7.57916        -0.005117      0.016739      0.000064
C     10.10440      4.48105      7.64278         0.003888      0.005727     -0.001522
C      9.61977      3.13459      7.56681         0.004285     -0.016815     -0.001787
C      4.27799     10.16435      7.65311         0.008269      0.001382      0.003805
C      2.94390      9.64575      7.58072        -0.022846      0.001332      0.001650
C      6.60443      0.89360      7.63787        -0.011469     -0.003196     -0.001567
C      7.93850      1.41142      7.56378         0.018379      0.000158     -0.001701
N      8.80887      0.32128      7.47579         0.004724      0.002555      0.000321
N      0.15184      8.76633      7.48615         0.002548      0.009177      0.000172
N      8.54114      8.70517      7.60180        -0.023336      0.008752     -0.001611
N      2.34107      2.35181      7.59489         0.016595      0.004766     -0.001320
N      2.07335     10.73526      7.48800        -0.006579     -0.004694      0.001429
N     10.73155      2.29175      7.48087        -0.005531     -0.011190     -0.000208
N      2.57593      8.32312      7.59942        -0.012464      0.006745     -0.000283
N      8.30661      2.73401      7.57983         0.007920     -0.007005     -0.005321
O      5.32865      2.87860      7.61731        -0.011278      0.000110     -0.010634
O      5.55341      8.17928      7.68271         0.008956      0.001402      0.015053
O      8.08855      5.70764      7.61888        -0.000607      0.009179     -0.010360
O      2.79252      5.34963      7.68300         0.003753     -0.007755      0.012669
Zr      6.53864      4.45883      7.57584        -0.009239      0.016229     -0.023852
Zr      4.34262      6.59883      7.69462         0.016462     -0.013267      0.014298
Zr      0.02666     10.81052      6.85400         0.005142     -0.003530      0.005357
