152
# total energy = -1060.43718025 eVH     10.35389      5.87395      7.64558        -0.233814      0.134530      1.008461
H     10.62451     15.10445      7.64558         0.266587     -0.081399      0.827713
H     10.62451      5.87395     13.33282        -0.311070      0.075548     -0.757437
H     10.35389     15.10445     13.33282         0.151573     -0.278938     -0.769527
H      7.64558     10.35389      5.87395         0.876485     -0.249461      0.209992
H      7.64558     10.62451     15.10445         0.253902      0.020601     -0.066095
H     13.33282     10.62451      5.87395        -0.830136      0.135986      0.156619
H     13.33282     10.35389     15.10445        -0.297779     -0.076856     -0.037867
H      5.87395      7.64558     10.35389         0.096490      0.426755      0.008927
H     15.10445      7.64558     10.62451        -0.096568      0.557124      0.132189
H      5.87395     13.33282     10.62451         0.008121     -0.932944      0.103935
H     15.10445     13.33282     10.35389        -0.181313     -0.382520      0.024936
H      5.87395     10.35389      7.64558         0.295786      0.051924      0.370922
H     15.10445     10.62451      7.64558        -0.125592     -0.140452      0.618903
H      5.87395     10.62451     13.33282        -0.052172      0.437433     -0.693334
H     15.10445     10.35389     13.33282         0.176309     -0.459854     -0.917464
H     10.35389      7.64558      5.87395         0.021979      0.505349      0.356409
H     10.62451      7.64558     15.10445         0.238636      0.694042     -0.092258
H     10.62451     13.33282      5.87395         0.083181     -0.563769      0.217546
H     10.35389     13.33282     15.10445         0.073358     -0.348492     -0.124825
H      7.64558      5.87395     10.35389         0.396046      0.128869      0.062835
H      7.64558     15.10445     10.62451         0.389736     -0.128491      0.214017
H     13.33282      5.87395     10.62451        -0.308921      0.128956     -0.013235
H     13.33282     15.10445     10.35389        -0.638562     -0.175505      0.180162
H     12.45634     12.45634     19.01126         0.261526      0.269758     -0.222398
H     19.01126     19.01126     19.01126        -0.250391     -0.268720     -0.237361
H     19.01126     12.45634     12.45634        -0.244623      0.269680      0.240275
H     12.45634     19.01126     12.45634         0.294548     -0.228021      0.236265
C     10.35284      5.61067      6.59456         0.393425     -0.340310     -1.234229
C     10.62556     15.36773      6.59456        -0.221457      0.650270     -0.606105
C     10.62556      5.61067     14.38384         0.359247     -0.266792      0.791069
C     10.35284     15.36773     14.38384        -0.193349      0.352219      0.960708
C      6.59456     10.35284      5.61067        -1.286974      0.036620     -0.214153
C      6.59456     10.62556     15.36773        -0.625453      0.063084      0.359580
C     14.38384     10.62556      5.61067         1.387314     -0.163812     -0.621517
C     14.38384     10.35284     15.36773         0.325334     -0.129997      0.402435
C      5.61067      6.59456     10.35284        -0.257385     -0.624797     -0.021120
C     15.36773      6.59456     10.62556         0.368853     -0.856968     -0.097130
C      5.61067     14.38384     10.62556        -0.161970      1.063051     -0.248683
C     15.36773     14.38384     10.35284         0.457633      0.783496     -0.072120
C      5.61067     10.35284      6.59456        -0.309512     -0.113439     -0.616921
C     15.36773     10.62556      6.59456         0.324003      0.116617     -0.551582
C      5.61067     10.62556     14.38384        -0.304420     -0.159989      1.242714
C     15.36773     10.35284     14.38384         0.180770      0.166924      1.271115
C     10.35284      6.59456      5.61067        -0.053428     -0.704758     -0.443869
C     10.62556      6.59456     15.36773        -0.057003     -0.845113      0.378582
C     10.62556     14.38384      5.61067        -0.477389      0.392939     -0.775408
C     10.35284     14.38384     15.36773        -0.164665      0.648687      0.495865
C      6.59456      5.61067     10.35284        -0.542502     -0.318380      0.017685
C      6.59456     15.36773     10.62556        -0.289495      0.484246      0.079065
C     14.38384      5.61067     10.62556         0.417738     -0.325533      0.029902
C     14.38384     15.36773     10.35284         1.060463      0.386750     -0.106792
C     10.40319      3.19606      7.29314        -0.012591      0.893087     -0.365494
C     10.35913      4.25547      6.23373         0.038010     -0.372624      0.291681
C      0.08601      7.29314      7.29314        -0.014308     -0.506429     -0.514753
C      0.13007      6.23373      6.23373        -0.070830      0.823595      0.069758
C      0.08601      3.19606      3.19606        -0.007647      0.683313      0.261068
C      0.13007      4.25547      4.25547         0.067783     -0.256310     -0.614935
C     10.40319      7.29314      3.19606        -0.051528     -1.076973      0.757075
C     10.35913      6.23373      4.25547        -0.049078      0.349476     -0.213327
C      7.29314     10.40319      3.19606        -1.020204     -0.053576      0.256653
C      6.23373     10.35913      4.25547         0.377902      0.111445     -0.523152
C      7.29314      0.08601      7.29314        -0.696534      0.017735     -0.362649
C      6.23373      0.13007      6.23373         0.174426      0.095585      0.112421
C      3.19606      0.08601      3.19606         0.647262      0.009278      0.166437
C      4.25547      0.13007      4.25547        -0.202508     -0.084817     -0.310008
C      3.19606     10.40319      7.29314         0.495239     -0.034595     -0.957097
C      4.25547     10.35913      6.23373        -0.132632     -0.023093      0.158051
C      3.19606      7.29314     10.40319         0.667402     -0.399595      0.005995
C      4.25547      6.23373     10.35913        -0.114314      0.173024      0.002510
C      7.29314      7.29314      0.08601        -0.433488     -0.297178     -0.015756
C      6.23373      6.23373      0.13007         0.201078      0.130619     -0.127525
C      3.19606      3.19606      0.08601         0.324981      0.547915     -0.020322
C      4.25547      4.25547      0.13007        -0.447629     -0.278626     -0.014864
C      7.29314      3.19606     10.40319        -0.283024      0.612827     -0.002109
C      6.23373      4.25547     10.35913         0.013879     -0.145513      0.019689
O     10.43466      3.58206      8.50569        -0.031905      0.039403      0.247845
O     10.54374     17.39634      8.50569         0.057927     -0.077987      0.527053
O     10.54374      3.58206     12.47271         0.031479      0.104272     -0.416979
O     10.43466     17.39634     12.47271         0.088856     -0.057410     -0.492492
O      8.50569     10.43466      3.58206         0.683033     -0.076306      0.037767
O      8.50569     10.54374     17.39634         0.722884      0.080560     -0.119292
O     12.47271     10.54374      3.58206        -0.617770      0.129168      0.209693
O     12.47271     10.43466     17.39634        -0.346480     -0.000913      0.036895
O      3.58206      8.50569     10.43466         0.020331      0.437695     -0.073540
O     17.39634      8.50569     10.54374        -0.071715      0.440371      0.051784
O      3.58206     12.47271     10.54374         0.125909     -0.619498     -0.003113
O     17.39634     12.47271     10.43466        -0.220792     -0.744776     -0.018829
O      3.58206     10.43466      8.50569         0.185355     -0.044293      0.797810
O     17.39634     10.54374      8.50569        -0.006713      0.044577      0.332086
O      3.58206     10.54374     12.47271        -0.001950      0.002115     -0.274199
O     17.39634     10.43466     12.47271        -0.010671     -0.002807     -0.309703
O     10.43466      8.50569      3.58206        -0.115075      0.528233     -0.089909
O     10.54374      8.50569     17.39634         0.057013      0.588286     -0.075326
O     10.54374     12.47271      3.58206         0.102273     -0.613209      0.115430
O     10.43466     12.47271     17.39634        -0.050140     -0.826260     -0.310326
O      8.50569      3.58206     10.43466         0.383883      0.021510     -0.059153
O      8.50569     17.39634     10.54374         0.619507     -0.147006      0.046669
O     12.47271      3.58206     10.54374        -0.514550      0.117857      0.026632
O     12.47271     17.39634     10.43466        -0.629810     -0.106170      0.050401
O     11.90042     11.90042     19.56718        -0.273150     -0.286592      0.221910
O     19.56718     19.56718     19.56718         0.302445      0.314657      0.290843
O     19.56718     11.90042     11.90042         0.278464     -0.317094     -0.243704
O     11.90042     19.56718     11.90042        -0.315832      0.218531     -0.201369
O      9.45224      1.03696      9.45224        -0.110424      0.134285     -0.047154
O      1.03696      9.45224      9.45224         0.141808     -0.138948     -0.044816
O      1.03696      1.03696      1.03696         0.078854      0.073175      0.090010
O      9.45224      9.45224      1.03696        -0.074432     -0.128069      0.142968
Zr     10.48920      2.52580     10.48920         0.037647     -0.145407      0.156211
Zr     10.48920     18.45260     10.48920        -0.177752      0.242243     -0.383888
Zr     10.48920     10.48920      2.52580         0.115150      0.362161     -0.299896
Zr     10.48920     10.48920     18.45260        -0.038495     -0.257405      0.283815
Zr      2.52580     10.48920     10.48920        -0.292615      0.093595      0.249912
Zr     18.45260     10.48920     10.48920         0.179383     -0.146496     -0.043615
Pd      9.33960     14.40886      9.21231        -0.041152     -0.003521     -0.061158
Pd      8.60355     13.67551     13.12393        -0.023090      0.069397     -0.005025
Pd     12.03057     14.36055      8.80821         0.028065      0.023585      0.050220
Pd     12.57324     12.84899     10.83588         0.067065     -0.142378      0.045582
Pd     12.09985      7.14099     12.59682         0.028043     -0.030564     -0.004268
Pd     11.06273     15.05740     11.36820        -0.004285      0.039459     -0.035941
Pd      9.92363     12.70762     11.00042        -0.084413      0.040035      0.002386
Pd     13.55003     12.22336      8.04348        -0.009990      0.059015      0.000470
Pd     11.52751     11.62611      6.11611         0.013453      0.061066      0.089429
Pd      7.91552      8.21539      7.50992        -0.044597     -0.011118     -0.033582
Pd      8.70332     11.77712      6.82174         0.032487      0.012935      0.086114
Pd     10.15792      9.51632      8.21231        -0.090923     -0.068141     -0.025461
Pd      8.49347     14.48733      6.68750        -0.035788     -0.019318      0.026166
Pd     12.34235      9.20267      6.85703        -0.053812     -0.014365      0.127098
Pd      9.79170      9.62892      5.59222         0.041049      0.033241     -0.004598
Pd      6.90553      9.45699     12.21204         0.014040     -0.005479      0.020854
Pd     12.26458      6.73791      7.92136         0.007748      0.072889      0.061423
Pd      5.88653     10.49870      9.79177         0.021787     -0.005879      0.001497
Pd      7.52899      7.10955     13.31636        -0.031649     -0.078457     -0.054137
Ir     11.56625      9.70238     13.09179        -0.184364      0.002080      0.058323
Ir     13.43010      9.14588     11.52343         0.045535      0.074146     -0.136752
Ir      9.26415      8.83961     14.01354         0.054057      0.084738     -0.042962
Ir     10.41617     10.79470     15.12818        -0.025245     -0.011853     -0.054908
Ir      7.28994     12.01535     11.41423        -0.064310     -0.013110     -0.041791
Ir     14.58696     11.05101     10.37315        -0.065724     -0.021704     -0.002328
Ir     12.23365     10.54210      9.55103         0.121544      0.018048     -0.022929
Ir      8.91299     11.07994     12.97106         0.156586     -0.193793      0.108726
Ir     10.09640      9.97416     11.00278         0.002309     -0.048733      0.173705
Ir     13.52197     11.41139     12.70116        -0.051797      0.069484     -0.039682
Ir     11.25700     12.23929     13.16887        -0.039278     -0.058582      0.001413
Ir      8.42352     11.19665      9.32099        -0.151333      0.042114     -0.013359
Ir     11.59054      8.02044     10.08533         0.000214      0.009786     -0.080531
Ir      7.18091     13.12894      8.61180         0.007723     -0.011558     -0.013424
Ir      9.53004      6.96718      9.26028        -0.082966      0.022138     -0.031602
Ir      8.01740      8.81101     10.02706         0.001550      0.006782     -0.103637
Ir     10.71007     12.13183      8.50514         0.086128      0.019446     -0.058424
Ir      9.52415      7.66204     11.75611         0.002180      0.057849     -0.027117
Ir     13.82749      8.67272      8.99468        -0.073526     -0.050445      0.115035
