152
# total energy = -1003.19170488 eVH     10.35389      5.87395      7.64558        -0.090091      0.173771      0.843793
H     10.62451     15.10445      7.64558        -0.373567     -0.081102      1.145706
H     10.62451      5.87395     13.33282         0.082661      0.010731     -0.916818
H     10.35389     15.10445     13.33282        -0.044555     -0.177468     -0.767106
H      7.64558     10.35389      5.87395         0.630153      0.142728     -0.095714
H      7.64558     10.62451     15.10445         0.869062      0.577774      0.009133
H     13.33282     10.62451      5.87395        -0.725959      0.064181      0.211034
H     13.33282     10.35389     15.10445        -0.638192     -0.165724      0.005210
H      5.87395      7.64558     10.35389        -0.080104      1.781327      0.365090
H     15.10445      7.64558     10.62451        -0.036942      1.009742     -0.052071
H      5.87395     13.33282     10.62451         0.192279     -0.843083      0.138209
H     15.10445     13.33282     10.35389         0.003778     -1.102065     -0.156281
H      5.87395     10.35389      7.64558        -0.381542      0.202491      1.087402
H     15.10445     10.62451      7.64558         0.102938      0.754586      1.536342
H      5.87395     10.62451     13.33282        -0.046090      0.494825     -1.310750
H     15.10445     10.35389     13.33282         0.726842      0.105687     -1.024349
H     10.35389      7.64558      5.87395         0.416316      1.431886     -0.070130
H     10.62451      7.64558     15.10445         0.572420      1.115556     -0.017088
H     10.62451     13.33282      5.87395        -0.489902     -0.791292      0.097520
H     10.35389     13.33282     15.10445        -0.093783     -0.428305     -0.153364
H      7.64558      5.87395     10.35389         1.073256     -0.187129     -0.211520
H      7.64558     15.10445     10.62451         0.617623     -0.212526      0.034902
H     13.33282      5.87395     10.62451        -0.920134      0.048110      0.317553
H     13.33282     15.10445     10.35389        -0.349446     -0.102970     -0.035486
H     12.45634     12.45634     19.01126         0.264802      0.234173     -0.247882
H     19.01126     19.01126     19.01126        -0.266480     -0.260091     -0.225647
H     19.01126     12.45634     12.45634        -0.269065      0.257691      0.232791
H     12.45634     19.01126     12.45634         0.258424     -0.270040      0.229131
C     10.35284      5.61067      6.59456        -0.113700     -0.984946     -0.902681
C     10.62556     15.36773      6.59456         0.179794      0.418671     -0.807906
C     10.62556      5.61067     14.38384        -0.175977     -0.743246      0.935720
C     10.35284     15.36773     14.38384         0.051328      0.277305      0.832515
C      6.59456     10.35284      5.61067        -1.070756      0.151013     -0.756878
C      6.59456     10.62556     15.36773        -0.897491      0.194178      0.754011
C     14.38384     10.62556      5.61067         0.844537      0.124290     -0.828955
C     14.38384     10.35284     15.36773         1.258870      0.067823      0.702607
C      5.61067      6.59456     10.35284        -0.778935     -0.941103     -0.019329
C     15.36773      6.59456     10.62556         0.545973     -0.086035     -0.091922
C      5.61067     14.38384     10.62556        -0.412074      0.951024     -0.054427
C     15.36773     14.38384     10.35284         0.410373      1.277993     -0.074207
C      5.61067     10.35284      6.59456        -0.227043     -0.037837     -1.337194
C     15.36773     10.62556      6.59456         0.361680     -0.073486     -1.181217
C      5.61067     10.62556     14.38384        -0.475852     -0.004465      0.976783
C     15.36773     10.35284     14.38384         0.113902     -0.060477      1.497545
C     10.35284      6.59456      5.61067        -0.047883     -1.242425     -0.615719
C     10.62556      6.59456     15.36773        -0.035541     -0.908958      0.752337
C     10.62556     14.38384      5.61067        -0.037373      1.020887     -0.739000
C     10.35284     14.38384     15.36773        -0.028718      0.413808      0.325747
C      6.59456      5.61067     10.35284        -0.681029     -1.179684      0.147489
C      6.59456     15.36773     10.62556        -0.715795      0.477222      0.036359
C     14.38384      5.61067     10.62556         0.314128     -0.661702     -0.208076
C     14.38384     15.36773     10.35284         0.217546      0.503350     -0.020206
C     10.40319      3.19606      7.29314        -0.027094      0.307065     -0.983882
C     10.35913      4.25547      6.23373        -0.037290     -0.486495      0.152295
C      0.08601      7.29314      7.29314        -0.049784     -0.852955     -0.306954
C      0.13007      6.23373      6.23373         0.013957      0.395144      0.596860
C      0.08601      3.19606      3.19606        -0.002836      0.782928      0.440309
C      0.13007      4.25547      4.25547         0.020270     -0.563111     -0.375687
C     10.40319      7.29314      3.19606        -0.040576     -0.547721      0.232396
C     10.35913      6.23373      4.25547         0.014873      0.258454     -0.627919
C      7.29314     10.40319      3.19606        -0.410793     -0.000018      0.188476
C      6.23373     10.35913      4.25547         0.226725     -0.040051     -0.286795
C      7.29314      0.08601      7.29314        -0.942558     -0.088311     -0.330344
C      6.23373      0.13007      6.23373         0.593188     -0.222902      0.442212
C      3.19606      0.08601      3.19606         0.874895     -0.044107      0.269269
C      4.25547      0.13007      4.25547        -0.521539     -0.231184     -0.394538
C      3.19606     10.40319      7.29314         0.352904      0.006764     -0.177430
C      4.25547     10.35913      6.23373        -0.248778     -0.026090      0.299761
C      3.19606      7.29314     10.40319         0.307082     -0.451999      0.010965
C      4.25547      6.23373     10.35913        -0.873760      0.073263      0.088602
C      7.29314      7.29314      0.08601        -0.421131     -0.360780     -0.025126
C      6.23373      6.23373      0.13007         0.705022      0.079428      0.021404
C      3.19606      3.19606      0.08601         0.747130      0.364038     -0.020500
C      4.25547      4.25547      0.13007        -0.107584     -0.797594     -0.047349
C      7.29314      3.19606     10.40319        -0.478356      0.467175     -0.000921
C      6.23373      4.25547     10.35913         0.361058     -0.769067      0.071873
O     10.43466      3.58206      8.50569         0.103681      0.278560      0.820845
O     10.54374     17.39634      8.50569         0.039359     -0.081222      0.322670
O     10.54374      3.58206     12.47271         0.050964      0.071484     -0.408725
O     10.43466     17.39634     12.47271        -0.034081     -0.121323     -0.380516
O      8.50569     10.43466      3.58206         0.562792     -0.044531      0.194258
O      8.50569     10.54374     17.39634         0.829006     -0.047226     -0.210595
O     12.47271     10.54374      3.58206        -0.800934      0.154952      0.246273
O     12.47271     10.43466     17.39634        -0.471671      0.003066     -0.184413
O      3.58206      8.50569     10.43466         0.189607      0.607751     -0.028809
O     17.39634      8.50569     10.54374        -0.153816      0.533495      0.035753
O      3.58206     12.47271     10.54374         0.092297     -0.450043      0.040157
O     17.39634     12.47271     10.43466        -0.154159     -0.569344     -0.032106
O      3.58206     10.43466      8.50569         0.160290     -0.018940      0.348305
O     17.39634     10.54374      8.50569        -0.014354      0.087579      0.310233
O      3.58206     10.54374     12.47271         0.057313      0.045266     -0.306253
O     17.39634     10.43466     12.47271        -0.122450     -0.029811     -0.324807
O     10.43466      8.50569      3.58206        -0.052254      0.626400      0.201889
O     10.54374      8.50569     17.39634        -0.076536      0.758690     -0.187270
O     10.54374     12.47271      3.58206         0.133195     -0.731073      0.183563
O     10.43466     12.47271     17.39634        -0.037589     -0.295266      0.010457
O      8.50569      3.58206     10.43466         0.646852      0.163153     -0.044960
O      8.50569     17.39634     10.54374         0.572266     -0.187641      0.009640
O     12.47271      3.58206     10.54374        -0.725075      0.115087      0.013220
O     12.47271     17.39634     10.43466        -0.542065     -0.133372     -0.035065
O     11.90042     11.90042     19.56718        -0.309161     -0.245305      0.265901
O     19.56718     19.56718     19.56718         0.299552      0.310268      0.231275
O     19.56718     11.90042     11.90042         0.339226     -0.278962     -0.247641
O     11.90042     19.56718     11.90042        -0.305099      0.347814     -0.237830
O      9.45224      1.03696      9.45224        -0.028864      0.117595     -0.091599
O      1.03696      9.45224      9.45224         0.056632     -0.024194     -0.100416
O      1.03696      1.03696      1.03696         0.037998      0.109172      0.095640
O      9.45224      9.45224      1.03696        -0.040722     -0.018895      0.103101
Zr     10.48920      2.52580     10.48920        -0.172666     -0.345549      0.141897
Zr     10.48920     18.45260     10.48920         0.081330      0.078717      0.075930
Zr     10.48920     10.48920      2.52580        -0.127755     -0.156567     -0.357060
Zr     10.48920     10.48920     18.45260         0.123228      0.043760      0.274856
Zr      2.52580     10.48920     10.48920        -0.113695     -0.146238     -0.022772
Zr     18.45260     10.48920     10.48920         0.089823     -0.010543      0.052599
Pd     12.08380      8.43094     10.18589        -0.066541      0.282998     -0.119718
Pd      7.20023      9.58255     10.62499        -0.083695      0.160594     -0.062940
Pd      7.08789     11.87557     11.95669         0.007434     -0.057318      0.009394
Pd     12.02834     13.61419      7.61103         0.092982      0.000150     -0.063675
Pd     11.59629      8.09796      7.51994        -0.103153     -0.025081      0.064774
Pd      8.77309      7.39563      7.08783        -0.142898      0.135973      0.163606
Pd     11.61433     11.54908      5.97896         0.075803     -0.144133      0.013484
Pd     13.91021      9.20239      7.68883         0.192223     -0.043300     -0.068184
Pd      9.50678     11.95446      7.70067         0.198592      0.045907      0.027219
Pd      7.18302      7.14435     12.03184        -0.221518     -0.018715     -0.003878
Pd      6.89539      7.56622      8.77641         0.061439     -0.008668     -0.076954
Pd      7.34805      9.28505     13.51092         0.041477     -0.039040     -0.107480
Pd     11.38224      5.93720      9.22303        -0.043413     -0.200604     -0.015601
Pd      9.80825      9.73525      6.28995         0.087759      0.000991      0.014014
Pd      9.14808     14.11944      9.12523        -0.005669      0.076185      0.029718
Pd     11.34345      6.51527     11.77907        -0.187534     -0.019905      0.161379
Pd      9.78597      9.31163      9.10654         0.589058     -0.150969      0.170228
Pd      9.24081     11.56579     10.31671         0.173877     -0.101908      0.258196
Pd      9.23536      7.02669     10.24931         0.027291     -0.070350     -0.206455
Pd      8.94623      7.18608     13.93923         0.015039      0.092878     -0.079857
Pd      9.40669      9.07022     11.82952         0.222672      0.043055      0.005834
Pd     11.91010     10.82548      8.54157        -0.049614     -0.092622     -0.061725
Pd      7.02886     12.26893      9.22503        -0.099873      0.034617     -0.137754
Pd      7.67663      9.95209      8.01685        -0.266976     -0.003244     -0.228277
Pd     13.82074      6.85459      8.72387         0.065211     -0.110791      0.149833
Pd     13.72952      7.66052     12.20252        -0.021742      0.027879      0.066263
Pd      9.40208     11.40410     13.13947        -0.096941      0.003558     -0.126888
Pd     14.05168     12.35481      8.73310        -0.019886      0.033486      0.049683
Pd     13.44024     10.22880     12.71821         0.090766      0.039307      0.097107
Pd     14.13724     10.06215     10.20977        -0.072529      0.009878     -0.074879
Pd     11.47273     10.83264     11.32117        -0.243480     -0.127472     -0.144010
Pd     11.46501     13.24578     10.09381        -0.084837     -0.124441     -0.068780
Pd     13.69821     12.48003     11.41435         0.011162      0.075742     -0.059064
Pd     11.60400     13.25070     12.74940        -0.013728     -0.151395      0.106477
Pd     11.65731     11.22601     14.43132        -0.002123     -0.013310      0.122992
Pd     11.41381      8.70302     13.34610         0.113362     -0.076847     -0.012031
Pd      9.59642      9.65695     15.16021         0.033727     -0.033150     -0.119367
Pd      9.17470     13.73991     11.78466        -0.115886      0.044768      0.019709
