152
# total energy = -1060.40142517 eVH     10.35389      5.87395      7.64558        -0.229859      0.132559      1.010999
H     10.62451     15.10445      7.64558         0.226834     -0.082781      0.819557
H     10.62451      5.87395     13.33282        -0.313110      0.074969     -0.775929
H     10.35389     15.10445     13.33282         0.149354     -0.280497     -0.780832
H      7.64558     10.35389      5.87395         0.879244     -0.251615      0.203992
H      7.64558     10.62451     15.10445         0.260651      0.010046     -0.069077
H     13.33282     10.62451      5.87395        -0.851452      0.150109      0.173184
H     13.33282     10.35389     15.10445        -0.295657     -0.062212     -0.048415
H      5.87395      7.64558     10.35389         0.096194      0.423728      0.006747
H     15.10445      7.64558     10.62451        -0.089284      0.515640      0.092945
H      5.87395     13.33282     10.62451         0.014103     -0.942270      0.117435
H     15.10445     13.33282     10.35389        -0.169047     -0.376814      0.023725
H      5.87395     10.35389      7.64558         0.305457      0.052310      0.370699
H     15.10445     10.62451      7.64558        -0.123219     -0.137591      0.631269
H      5.87395     10.62451     13.33282        -0.045762      0.436088     -0.678602
H     15.10445     10.35389     13.33282         0.159754     -0.461544     -0.907969
H     10.35389      7.64558      5.87395         0.020428      0.500753      0.350290
H     10.62451      7.64558     15.10445         0.262004      0.731240     -0.074991
H     10.62451     13.33282      5.87395         0.070079     -0.569281      0.219901
H     10.35389     13.33282     15.10445         0.080715     -0.345822     -0.129785
H      7.64558      5.87395     10.35389         0.392313      0.129125      0.064511
H      7.64558     15.10445     10.62451         0.389494     -0.126279      0.219270
H     13.33282      5.87395     10.62451        -0.310614      0.131752     -0.007568
H     13.33282     15.10445     10.35389        -0.642339     -0.174790      0.180652
H     12.45634     12.45634     19.01126         0.262059      0.270951     -0.221879
H     19.01126     19.01126     19.01126        -0.251674     -0.267226     -0.237857
H     19.01126     12.45634     12.45634        -0.246380      0.270298      0.238539
H     12.45634     19.01126     12.45634         0.294168     -0.229103      0.236012
C     10.35284      5.61067      6.59456         0.379276     -0.363576     -1.269505
C     10.62556     15.36773      6.59456        -0.238692      0.652604     -0.669325
C     10.62556      5.61067     14.38384         0.365128     -0.261852      0.799222
C     10.35284     15.36773     14.38384        -0.190668      0.343128      0.959341
C      6.59456     10.35284      5.61067        -1.303045      0.035755     -0.211940
C      6.59456     10.62556     15.36773        -0.607493      0.063422      0.343328
C     14.38384     10.62556      5.61067         1.379080     -0.175321     -0.618981
C     14.38384     10.35284     15.36773         0.328218     -0.126145      0.373946
C      5.61067      6.59456     10.35284        -0.253252     -0.622392     -0.024525
C     15.36773      6.59456     10.62556         0.383387     -0.842392     -0.061719
C      5.61067     14.38384     10.62556        -0.155736      1.070646     -0.231512
C     15.36773     14.38384     10.35284         0.455003      0.770359     -0.061137
C      5.61067     10.35284      6.59456        -0.336850     -0.117021     -0.663175
C     15.36773     10.62556      6.59456         0.334502      0.114736     -0.571886
C      5.61067     10.62556     14.38384        -0.313906     -0.160559      1.236582
C     15.36773     10.35284     14.38384         0.183740      0.186339      1.277881
C     10.35284      6.59456      5.61067        -0.060118     -0.705072     -0.449964
C     10.62556      6.59456     15.36773        -0.084478     -0.910703      0.379222
C     10.62556     14.38384      5.61067        -0.497941      0.431954     -0.760722
C     10.35284     14.38384     15.36773        -0.165990      0.640235      0.488899
C      6.59456      5.61067     10.35284        -0.547114     -0.316967      0.011366
C      6.59456     15.36773     10.62556        -0.289757      0.470361      0.079120
C     14.38384      5.61067     10.62556         0.428673     -0.321545      0.019761
C     14.38384     15.36773     10.35284         1.075584      0.398004     -0.106076
C     10.40319      3.19606      7.29314        -0.013464      0.889675     -0.366622
C     10.35913      4.25547      6.23373         0.027661     -0.354501      0.302693
C      0.08601      7.29314      7.29314        -0.011968     -0.492919     -0.521320
C      0.13007      6.23373      6.23373        -0.061179      0.806753      0.094612
C      0.08601      3.19606      3.19606        -0.006247      0.689831      0.251417
C      0.13007      4.25547      4.25547         0.068937     -0.266608     -0.592624
C     10.40319      7.29314      3.19606        -0.055085     -1.077425      0.738971
C     10.35913      6.23373      4.25547        -0.056972      0.347975     -0.197140
C      7.29314     10.40319      3.19606        -1.038609     -0.053254      0.237469
C      6.23373     10.35913      4.25547         0.374432      0.110966     -0.516860
C      7.29314      0.08601      7.29314        -0.659419      0.016693     -0.359384
C      6.23373      0.13007      6.23373         0.174637      0.098700      0.107156
C      3.19606      0.08601      3.19606         0.656057      0.008867      0.161949
C      4.25547      0.13007      4.25547        -0.194221     -0.081238     -0.324112
C      3.19606     10.40319      7.29314         0.497444     -0.033089     -0.961996
C      4.25547     10.35913      6.23373        -0.128343     -0.029763      0.156891
C      3.19606      7.29314     10.40319         0.676802     -0.390733      0.006320
C      4.25547      6.23373     10.35913        -0.117503      0.171625      0.002771
C      7.29314      7.29314      0.08601        -0.445781     -0.293879     -0.013545
C      6.23373      6.23373      0.13007         0.181050      0.140395     -0.120589
C      3.19606      3.19606      0.08601         0.329482      0.549081     -0.018500
C      4.25547      4.25547      0.13007        -0.451854     -0.270974     -0.022695
C      7.29314      3.19606     10.40319        -0.290292      0.598638     -0.003008
C      6.23373      4.25547     10.35913         0.012402     -0.136707      0.017814
O     10.43466      3.58206      8.50569        -0.030088      0.041898      0.250841
O     10.54374     17.39634      8.50569         0.055709     -0.085876      0.535476
O     10.54374      3.58206     12.47271         0.030932      0.103182     -0.405301
O     10.43466     17.39634     12.47271         0.092697     -0.058064     -0.483269
O      8.50569     10.43466      3.58206         0.695558     -0.072462      0.033383
O      8.50569     10.54374     17.39634         0.700720      0.076299     -0.117036
O     12.47271     10.54374      3.58206        -0.620069      0.132848      0.211079
O     12.47271     10.43466     17.39634        -0.345809     -0.001837      0.039090
O      3.58206      8.50569     10.43466         0.017989      0.432211     -0.071554
O     17.39634      8.50569     10.54374        -0.065667      0.441277      0.054145
O      3.58206     12.47271     10.54374         0.122676     -0.622689     -0.002036
O     17.39634     12.47271     10.43466        -0.209246     -0.739231     -0.024754
O      3.58206     10.43466      8.50569         0.191168     -0.043461      0.798225
O     17.39634     10.54374      8.50569        -0.012293      0.049729      0.346292
O      3.58206     10.54374     12.47271        -0.001340      0.000366     -0.269639
O     17.39634     10.43466     12.47271         0.000277     -0.006715     -0.289093
O     10.43466      8.50569      3.58206        -0.114344      0.525672     -0.091310
O     10.54374      8.50569     17.39634         0.058012      0.574591     -0.074090
O     10.54374     12.47271      3.58206         0.104988     -0.616069      0.119428
O     10.43466     12.47271     17.39634        -0.048896     -0.816400     -0.311176
O      8.50569      3.58206     10.43466         0.396902      0.024393     -0.057796
O      8.50569     17.39634     10.54374         0.633497     -0.150142      0.042263
O     12.47271      3.58206     10.54374        -0.522370      0.116709      0.024522
O     12.47271     17.39634     10.43466        -0.643159     -0.113059      0.050638
O     11.90042     11.90042     19.56718        -0.273266     -0.290128      0.219212
O     19.56718     19.56718     19.56718         0.307388      0.313494      0.290585
O     19.56718     11.90042     11.90042         0.281492     -0.318291     -0.240921
O     11.90042     19.56718     11.90042        -0.315253      0.220233     -0.202150
O      9.45224      1.03696      9.45224        -0.102236      0.127862     -0.052676
O      1.03696      9.45224      9.45224         0.137648     -0.136922     -0.047969
O      1.03696      1.03696      1.03696         0.082304      0.071144      0.088962
O      9.45224      9.45224      1.03696        -0.070461     -0.131204      0.139397
Zr     10.48920      2.52580     10.48920         0.036237     -0.139822      0.154899
Zr     10.48920     18.45260     10.48920        -0.184002      0.249550     -0.369501
Zr     10.48920     10.48920      2.52580         0.112640      0.356697     -0.307396
Zr     10.48920     10.48920     18.45260        -0.059315     -0.252122      0.285329
Zr      2.52580     10.48920     10.48920        -0.283199      0.099222      0.256186
Zr     18.45260     10.48920     10.48920         0.174382     -0.141715     -0.043440
Pd      9.34782     14.42165      9.20962         0.027613     -0.043590     -0.003224
Pd      8.61635     13.65888     13.14309        -0.008977     -0.010198     -0.046841
Pd     12.03454     14.37259      8.79880         0.039291      0.001927      0.032336
Pd     12.58377     12.83757     10.80203        -0.025831      0.063917      0.096746
Pd     12.11637      7.14781     12.64772         0.005904     -0.003461     -0.123385
Pd     11.09389     15.04083     11.38529        -0.042068     -0.039082     -0.066220
Pd      9.91534     12.70104     10.99572         0.054427      0.054039     -0.009373
Pd     13.54247     12.22322      8.02949         0.002314      0.038722     -0.007456
Pd     11.52477     11.62732      6.10854         0.048158     -0.042670      0.007690
Pd      7.92130      8.24123      7.50870        -0.033569     -0.049734     -0.053820
Pd      8.70098     11.76392      6.83482         0.013638      0.021526     -0.022124
Pd     10.19117      9.48302      8.19835        -0.079972      0.009086      0.030700
Pd      8.47158     14.46396      6.68575         0.050903      0.050450      0.033665
Pd     12.35257      9.16424      6.80293        -0.048790      0.051544      0.062591
Pd      9.78526      9.63973      5.58222         0.007827      0.013316     -0.003960
Pd      6.88503      9.46692     12.18146         0.067252     -0.045446      0.066093
Pd     12.25127      6.74228      7.96924         0.039577      0.002672     -0.110381
Pd      5.89639     10.51675      9.75585        -0.016415     -0.023552      0.027914
Pd      7.52154      7.14558     13.34439         0.031330     -0.014386     -0.103470
Ir     11.59748      9.70611     13.08058        -0.097888      0.112509      0.165800
Ir     13.46177      9.13073     11.52629         0.008046      0.044076     -0.061098
Ir      9.30535      8.83702     14.01891        -0.002417      0.024323     -0.020908
Ir     10.44626     10.81477     15.10926        -0.035787     -0.040950     -0.093060
Ir      7.29720     12.01080     11.40206        -0.068372      0.015169     -0.001157
Ir     14.57677     11.03755     10.32697         0.034017     -0.051689      0.016275
Ir     12.20541     10.55624      9.56216         0.080513     -0.097688     -0.002006
Ir      8.91326     11.05397     12.96658         0.081258      0.028363      0.145155
Ir     10.10190      9.94966     11.03009         0.013628      0.123457     -0.056644
Ir     13.54726     11.42874     12.66368        -0.052088     -0.077921      0.094225
Ir     11.28656     12.24613     13.15146        -0.174592     -0.033187     -0.051845
Ir      8.43878     11.16763      9.31817         0.093137      0.075053      0.039618
Ir     11.61015      8.01836     10.11139        -0.163216      0.005729      0.105305
Ir      7.20683     13.12338      8.64808        -0.058549     -0.075658     -0.048117
Ir      9.54377      6.95434      9.26263        -0.036911      0.066855     -0.003572
Ir      8.03174      8.80121     10.02153        -0.043595     -0.111995      0.027684
Ir     10.71868     12.13454      8.48437        -0.116263      0.048094      0.101524
Ir      9.52643      7.64121     11.75866        -0.054112      0.023273     -0.016298
Ir     13.79747      8.72106      8.97507         0.098409     -0.057911      0.018094
