152
# total energy = -1110.37830829 eVH     10.35389      5.87395      7.64558        -0.355024     -0.138826      1.072018
H     10.62451     15.10445      7.64558         0.358335      0.081339      0.942296
H     10.62451      5.87395     13.33282        -0.321541     -0.698996     -1.385746
H     10.35389     15.10445     13.33282        -0.612835      0.414685     -0.328669
H      7.64558     10.35389      5.87395         0.539834     -0.528134     -0.087497
H      7.64558     10.62451     15.10445         0.375734     -0.241219      0.045765
H     13.33282     10.62451      5.87395        -0.552826      0.629894     -0.033856
H     13.33282     10.35389     15.10445        -0.526935      0.406668      0.161080
H      5.87395      7.64558     10.35389         0.147627      0.534956      0.033815
H     15.10445      7.64558     10.62451         0.430724      0.955649      0.264317
H      5.87395     13.33282     10.62451        -0.224506     -0.481760      0.362291
H     15.10445     13.33282     10.35389         0.028774     -0.304230     -0.384234
H      5.87395     10.35389      7.64558        -0.080123     -0.368402      1.435610
H     15.10445     10.62451      7.64558         0.214432      0.469810      1.299306
H      5.87395     10.62451     13.33282        -0.192417     -0.360737     -1.181383
H     15.10445     10.35389     13.33282         0.573166      0.929546     -1.520977
H     10.35389      7.64558      5.87395        -0.547303      0.504380     -0.178974
H     10.62451      7.64558     15.10445        -0.140888      0.501579      0.182534
H     10.62451     13.33282      5.87395         0.883360     -1.374866     -0.320956
H     10.35389     13.33282     15.10445         0.258746     -0.556700     -0.087976
H      7.64558      5.87395     10.35389         0.716259      0.172558     -0.154831
H      7.64558     15.10445     10.62451         1.981298      0.777839      0.213444
H     13.33282      5.87395     10.62451        -2.684605     -0.949068     -0.470752
H     13.33282     15.10445     10.35389        -0.877458     -0.050063     -0.250052
H     12.45634     12.45634     19.01126         0.271965      0.257834     -0.227260
H     19.01126     19.01126     19.01126        -0.266820     -0.255127     -0.238428
H     19.01126     12.45634     12.45634        -0.282936      0.281023      0.186685
H     12.45634     19.01126     12.45634         0.255937     -0.251310      0.236048
C     10.35284      5.61067      6.59456         0.084288     -0.499875     -1.232532
C     10.62556     15.36773      6.59456         0.170569      0.758201     -0.816827
C     10.62556      5.61067     14.38384         0.183547     -0.316554      1.806561
C     10.35284     15.36773     14.38384         0.103513      0.384487      1.805351
C      6.59456     10.35284      5.61067        -1.131135     -0.110268     -0.863964
C      6.59456     10.62556     15.36773        -0.695867     -0.101902      0.767158
C     14.38384     10.62556      5.61067         0.863355     -0.109845     -1.001217
C     14.38384     10.35284     15.36773         1.199264      0.166282      1.101969
C      5.61067      6.59456     10.35284        -0.673170     -0.865279     -0.178610
C     15.36773      6.59456     10.62556         1.974087     -0.254987     -0.183252
C      5.61067     14.38384     10.62556        -1.575514     -0.004576     -0.127798
C     15.36773     14.38384     10.35284         0.486765      0.072868      0.014065
C      5.61067     10.35284      6.59456        -0.278507      0.192871     -1.340291
C     15.36773     10.62556      6.59456         0.284763     -0.231912     -1.000516
C      5.61067     10.62556     14.38384        -0.261103      0.420778      1.452452
C     15.36773     10.35284     14.38384         0.050570     -0.441877      1.926690
C     10.35284      6.59456      5.61067        -0.180675     -0.885805     -0.685026
C     10.62556      6.59456     15.36773        -0.108490     -0.767542      1.057270
C     10.62556     14.38384      5.61067        -0.497904      2.014446     -0.780619
C     10.35284     14.38384     15.36773        -0.278294      1.423333      0.487649
C      6.59456      5.61067     10.35284        -0.968631     -0.411103      0.084825
C      6.59456     15.36773     10.62556        -1.300331      0.374516     -0.328284
C     14.38384      5.61067     10.62556         1.282309     -1.248482      0.181828
C     14.38384     15.36773     10.35284         0.439542      0.314072      0.071612
C     10.40319      3.19606      7.29314         0.001902      0.308457     -0.103058
C     10.35913      4.25547      6.23373         0.138712     -0.535059      0.018284
C      0.08601      7.29314      7.29314        -0.052879     -0.299278     -0.424813
C      0.13007      6.23373      6.23373        -0.122405      0.708300      0.028648
C      0.08601      3.19606      3.19606        -0.107098      1.630891      0.171598
C      0.13007      4.25547      4.25547        -0.084478     -0.400959     -1.234878
C     10.40319      7.29314      3.19606         0.016543     -0.430871      0.124388
C     10.35913      6.23373      4.25547         0.260025      0.082936     -0.506740
C      7.29314     10.40319      3.19606        -1.666796      0.007425      0.324270
C      6.23373     10.35913      4.25547         0.654123      0.075348     -0.607435
C      7.29314      0.08601      7.29314        -0.404880     -0.012359     -0.307369
C      6.23373      0.13007      6.23373         0.680328     -0.055039      0.263966
C      3.19606      0.08601      3.19606         0.655933     -0.016331      0.186398
C      4.25547      0.13007      4.25547        -0.374138     -0.075370     -0.529034
C      3.19606     10.40319      7.29314         0.368963      0.018997     -0.315523
C      4.25547     10.35913      6.23373        -0.721376      0.066292      0.365247
C      3.19606      7.29314     10.40319         0.295018     -0.212528     -0.006619
C      4.25547      6.23373     10.35913         0.045159      0.645956      0.091520
C      7.29314      7.29314      0.08601        -0.717773     -0.606169     -0.020934
C      6.23373      6.23373      0.13007         0.870370      1.129274     -0.072103
C      3.19606      3.19606      0.08601         0.815756      0.503435      0.008298
C      4.25547      4.25547      0.13007        -0.325639     -1.743865     -0.129929
C      7.29314      3.19606     10.40319        -0.330246      0.275661     -0.003596
C      6.23373      4.25547     10.35913         0.508645     -0.029035      0.229916
O     10.43466      3.58206      8.50569        -0.048136      0.182737      0.258596
O     10.54374     17.39634      8.50569         0.042345     -0.232386      0.484119
O     10.54374      3.58206     12.47271         0.083907     -0.062699     -0.037284
O     10.43466     17.39634     12.47271        -0.023262     -0.140859     -0.275213
O      8.50569     10.43466      3.58206         0.981880      0.185173      0.386016
O      8.50569     10.54374     17.39634         0.572583      0.084495     -0.228459
O     12.47271     10.54374      3.58206        -0.424988     -0.038310      0.187091
O     12.47271     10.43466     17.39634        -0.516984     -0.069818     -0.196816
O      3.58206      8.50569     10.43466         0.182520      0.432374     -0.030132
O     17.39634      8.50569     10.54374        -0.230094      0.714054      0.044154
O      3.58206     12.47271     10.54374         0.160671     -0.675387      0.025155
O     17.39634     12.47271     10.43466        -0.185359     -0.480113     -0.012044
O      3.58206     10.43466      8.50569         0.222999     -0.059932      0.401239
O     17.39634     10.54374      8.50569        -0.171205      0.036666      0.410815
O      3.58206     10.54374     12.47271         0.147011      0.020841     -0.305898
O     17.39634     10.43466     12.47271         0.070828     -0.050079     -0.083758
O     10.43466      8.50569      3.58206         0.000650      0.277168      0.181383
O     10.54374      8.50569     17.39634         0.070720      0.437347     -0.180428
O     10.54374     12.47271      3.58206        -0.221790     -0.967624      0.344786
O     10.43466     12.47271     17.39634        -0.084104     -0.449493     -0.245102
O      8.50569      3.58206     10.43466         0.494695      0.196211     -0.012115
O      8.50569     17.39634     10.54374         0.662967     -0.198251      0.021941
O     12.47271      3.58206     10.54374        -0.741665      0.278445      0.036315
O     12.47271     17.39634     10.43466        -0.438144     -0.202808     -0.044204
O     11.90042     11.90042     19.56718        -0.346083     -0.307612      0.259252
O     19.56718     19.56718     19.56718         0.325279      0.311657      0.282562
O     19.56718     11.90042     11.90042         0.277055     -0.276844     -0.140673
O     11.90042     19.56718     11.90042        -0.306125      0.286342     -0.234056
O      9.45224      1.03696      9.45224        -0.058714      0.071819     -0.047309
O      1.03696      9.45224      9.45224         0.035898     -0.073523     -0.072053
O      1.03696      1.03696      1.03696         0.058385      0.141107      0.102129
O      9.45224      9.45224      1.03696        -0.134524     -0.090874      0.102276
Zr     10.48920      2.52580     10.48920         0.153406     -0.167207     -0.162911
Zr     10.48920     18.45260     10.48920        -0.097479      0.180555     -0.045652
Zr     10.48920     10.48920      2.52580         0.331697     -0.309008     -0.197739
Zr     10.48920     10.48920     18.45260         0.006302     -0.086543      0.205639
Zr      2.52580     10.48920     10.48920        -0.067321      0.171081     -0.051854
Zr     18.45260     10.48920     10.48920         0.140453     -0.127185     -0.249196
Ir     12.04780     12.48356     10.46062        -0.003976      0.004020     -0.001347
Ir     11.19251      7.41754     10.29614         0.010507     -0.003670     -0.018002
Ir      8.83610      7.36966     11.56299         0.011838     -0.006467     -0.012457
Ir      7.48442     11.65602      7.66231        -0.016302     -0.008524     -0.005480
Ir     11.59187     12.08845      7.12357         0.004126     -0.005188     -0.000396
Ir     13.76099      8.99117      7.55019         0.007414     -0.001363     -0.012324
Ir     12.48508     13.95578      8.41968        -0.008122     -0.003760     -0.004241
Ir      9.72330     11.26367      5.56306         0.009255     -0.004559     -0.011016
Ir      9.08031     13.46961      7.07708        -0.002628     -0.015117     -0.000438
Ir      9.27780      9.66407      7.52388        -0.001477     -0.002364     -0.005905
Ir     13.27799      7.03859     11.95663         0.005289      0.005327     -0.003783
Ir     13.59376      7.03803      9.11720         0.013823     -0.000574     -0.000514
Ir     11.03704      7.60002     12.84242         0.005580     -0.001787     -0.013622
Ir     13.60840     11.56344      8.75455        -0.003950      0.004842      0.000276
Ir     11.50240      9.64760      6.23535         0.007400     -0.014933     -0.003125
Ir      7.15065      9.17030      8.93861         0.011254     -0.004243     -0.008557
Ir     14.06278     11.43239     11.65833        -0.005042      0.005531     -0.001385
Ir     11.65336      9.85725      8.88969         0.000395     -0.010540     -0.007982
Ir      9.43197      9.51505     10.24467         0.008180     -0.008480     -0.005075
Ir     13.86515      9.40555     10.18564         0.009242     -0.000003     -0.005420
Ir     13.81359      9.15982     12.90305         0.011784      0.000172     -0.004180
Ir     11.68842      9.76345     11.56428         0.008710     -0.001945     -0.011133
Ir      9.90724     11.74622      8.97408         0.010042     -0.018116     -0.003076
Ir      9.07156      7.43338      8.82121         0.020202      0.005829     -0.022263
Ir     11.56614      7.56724      7.77083         0.021449     -0.019750     -0.030877
Ir      9.25183      9.48793     13.01755         0.004479     -0.013863     -0.005799
Ir      7.51877     13.91104      8.99663        -0.005104     -0.002885     -0.002158
Ir     10.88604     14.11096     11.95206        -0.010491     -0.002347     -0.002415
Ir     10.11771     14.16134      9.52456        -0.003394     -0.000902     -0.004603
Ir      9.79272     11.69440     11.72845         0.000701     -0.008056     -0.000103
Ir      7.58523     11.57985     10.21598         0.002192     -0.012640     -0.003517
Ir      8.35687     13.75350     11.58881        -0.006590     -0.010263     -0.001630
Ir      7.52491     11.57317     12.83137         0.002167     -0.013196     -0.003149
Ir      9.76920     11.62194     14.34388         0.003429     -0.015878      0.003786
Ir     13.48298     13.88198     12.19130        -0.010498      0.001495     -0.001753
Ir     11.99441     12.05088     13.08357        -0.002970      0.000160      0.000241
Ir     11.57319      9.80669     14.20546         0.007279     -0.010555     -0.012604
Ir      7.14732      9.37387     11.50021         0.010836     -0.013204     -0.007160
