16
# total energy = -106.94486942 eVH      2.38799      1.04796      0.00000        -0.000000     -0.010134      0.000000
H      2.38799     10.10174     -0.00000        -0.000000      0.010134      0.000000
C      1.21464      8.32635      0.00000         0.002589     -0.086486      0.000000
C      3.56133      8.32635     -0.00000        -0.002589     -0.086486     -0.000000
C      3.56133      2.82335     -0.00000        -0.002589      0.086486     -0.000000
C      1.21464      2.82335      0.00000         0.002589      0.086486      0.000000
N      2.38799      9.04894      0.00000        -0.000000      0.019004     -0.000000
N      2.38799      2.10076     -0.00000        -0.000000     -0.019004      0.000000
O      1.13295      4.06058     -0.00000         0.010644     -0.112204      0.000000
O      3.64302      4.06058      0.00000        -0.010644     -0.112204      0.000000
O      3.64302      7.08912      0.00000        -0.010644      0.112204     -0.000000
O      1.13295      7.08912     -0.00000         0.010644      0.112204      0.000000
O     -0.00000      9.08776      0.00000        -0.000000     -0.058876      0.000000
O     -0.00000      2.06194     -0.00000         0.000000      0.058876      0.000000
Ir     -0.00000      0.00000      0.00000        -0.000000      0.000000      0.000000
Ir      2.38799      5.57485      0.00000        -0.000000      0.000000      0.000000
