32
# total energy = -221.83528985 eVH      9.70892      7.74585      0.00000         0.004311     -0.003258      0.000000
H      5.40928      1.03444      0.00000        -0.004311      0.003258      0.000000
H      5.40928      7.74585      0.00000        -0.004311     -0.003258      0.000000
H      9.70892      1.03444      0.00000         0.004311      0.003258      0.000000
H     13.86246      6.54296      0.00000        -0.012783      0.005949      0.000000
H      1.25574      2.23733      0.00000         0.012783     -0.005949      0.000000
H      1.25574      6.54296      0.00000         0.012783      0.005949      0.000000
H     13.86246      2.23733      0.00000        -0.012783     -0.005949      0.000000
C      8.71313      7.27387      0.00000         0.004972     -0.002032     -0.000000
C      6.40507      1.50642      0.00000        -0.004972      0.002032      0.000000
C      6.40507      7.27387      0.00000        -0.004972     -0.002032      0.000000
C      8.71313      1.50642     -0.00000         0.004972      0.002032     -0.000000
C     14.42462      5.60779     -0.00000         0.008421     -0.002193     -0.000000
C      0.69358      3.17250     -0.00000        -0.008421      0.002193      0.000000
C      0.69358      5.60779      0.00000        -0.008421     -0.002193     -0.000000
C     14.42462      3.17250     -0.00000         0.008421      0.002193      0.000000
C      7.55910      8.05471     -0.00000         0.000000     -0.005115      0.000000
C      7.55910      0.72558      0.00000         0.000000      0.005115     -0.000000
C      7.55910      3.64372      0.00000         0.000000      0.002437      0.000000
C      7.55910      5.13657      0.00000         0.000000     -0.002437     -0.000000
C      1.39822      4.39015      0.00000         0.012425      0.000000     -0.000000
C     13.71998      4.39015      0.00000        -0.012425      0.000000     -0.000000
N      8.73365      5.91844     -0.00000        -0.002905     -0.009793      0.000000
N      6.38455      2.86185      0.00000         0.002905      0.009793     -0.000000
N      6.38455      5.91844      0.00000         0.002905     -0.009793     -0.000000
N      8.73365      2.86185      0.00000        -0.002905      0.009793     -0.000000
O     12.37103      4.39015     -0.00000        -0.006397     -0.000000      0.000000
O      2.74717      4.39015     -0.00000         0.006397      0.000000      0.000000
Ir      4.48857      5.53772      0.00000        -0.004190     -0.008776      0.000000
Ir     10.62963      3.24257     -0.00000         0.004190      0.008776      0.000000
Ir     10.62963      5.53772      0.00000         0.004190     -0.008776      0.000000
Ir      4.48857      3.24257     -0.00000        -0.004190      0.008776      0.000000
