152
# total energy = -1023.21864127 eVH     10.35389      5.87395      7.64558         0.498067      0.085536      0.723227
H     10.62451     15.10445      7.64558        -0.101732     -0.061372      0.814369
H     10.62451      5.87395     13.33282         0.145436      0.127646     -0.641619
H     10.35389     15.10445     13.33282        -0.168878     -0.125060     -0.539273
H      7.64558     10.35389      5.87395         0.309452     -0.022875      0.188533
H      7.64558     10.62451     15.10445         0.647040     -0.212185     -0.131179
H     13.33282     10.62451      5.87395        -0.786674     -0.170253      0.204407
H     13.33282     10.35389     15.10445        -0.437299     -0.101905     -0.055254
H      5.87395      7.64558     10.35389         0.211448      1.084079     -0.258495
H     15.10445      7.64558     10.62451        -0.176348      0.472721     -0.120824
H      5.87395     13.33282     10.62451         0.161124     -0.417780     -0.060020
H     15.10445     13.33282     10.35389        -0.131358     -0.916611      0.021732
H      5.87395     10.35389      7.64558         0.131621      0.098717      0.458365
H     15.10445     10.62451      7.64558         0.101779     -0.027364      1.048399
H      5.87395     10.62451     13.33282         0.190165     -0.026395     -0.382539
H     15.10445     10.35389     13.33282        -0.120143     -0.060148     -0.536552
H     10.35389      7.64558      5.87395         0.132723      0.861841      0.186013
H     10.62451      7.64558     15.10445        -0.010175      0.528839     -0.164513
H     10.62451     13.33282      5.87395        -0.009952     -0.580168      0.213564
H     10.35389     13.33282     15.10445        -0.288329     -0.888670     -0.131302
H      7.64558      5.87395     10.35389         0.445223      0.095968     -0.040155
H      7.64558     15.10445     10.62451         0.835677     -0.282854      0.026392
H     13.33282      5.87395     10.62451        -0.450200      0.187436     -0.066001
H     13.33282     15.10445     10.35389        -0.658145     -0.100718      0.166968
H     12.45634     12.45634     19.01126         0.251838      0.263860     -0.230493
H     19.01126     19.01126     19.01126        -0.252586     -0.230353     -0.261930
H     19.01126     12.45634     12.45634        -0.233962      0.271962      0.241555
H     12.45634     19.01126     12.45634         0.224538     -0.263378      0.249954
C     10.35284      5.61067      6.59456        -0.198814     -0.358343     -0.034579
C     10.62556     15.36773      6.59456         0.069692      0.361105     -1.227157
C     10.62556      5.61067     14.38384        -0.058363     -0.258100      0.821591
C     10.35284     15.36773     14.38384         0.037688      0.865265      0.417563
C      6.59456     10.35284      5.61067        -0.361528     -0.036700     -0.172803
C      6.59456     10.62556     15.36773        -0.846448      0.191687      0.371466
C     14.38384     10.62556      5.61067         0.485412      0.307121     -0.498955
C     14.38384     10.35284     15.36773         0.770352     -0.109193      0.444047
C      5.61067      6.59456     10.35284        -0.315452     -0.637858      0.438886
C     15.36773      6.59456     10.62556         0.163143     -0.510635      0.084158
C      5.61067     14.38384     10.62556        -0.144482      0.383659     -0.023312
C     15.36773     14.38384     10.35284         0.388747     -0.037067     -0.092497
C      5.61067     10.35284      6.59456        -0.260413     -0.024779     -0.786549
C     15.36773     10.62556      6.59456         0.611101     -0.268421     -1.340296
C      5.61067     10.62556     14.38384        -0.340083     -0.003620      0.417921
C     15.36773     10.35284     14.38384         0.494329     -0.163007      1.126844
C     10.35284      6.59456      5.61067        -0.174799     -0.463079     -0.438556
C     10.62556      6.59456     15.36773         0.057014     -0.633787      0.274455
C     10.62556     14.38384      5.61067         0.090324      0.984957     -0.495557
C     10.35284     14.38384     15.36773         0.255713      0.597998      0.511589
C      6.59456      5.61067     10.35284        -0.126962     -0.824464      0.073501
C      6.59456     15.36773     10.62556        -1.519433      0.415530      0.114813
C     14.38384      5.61067     10.62556         0.638522     -0.276499     -0.018086
C     14.38384     15.36773     10.35284        -0.426642      0.682542     -0.318074
C     10.40319      3.19606      7.29314         0.004879      0.829204     -0.297490
C     10.35913      4.25547      6.23373        -0.051950     -0.480201      0.495831
C      0.08601      7.29314      7.29314        -0.006673     -0.256074     -0.531416
C      0.13007      6.23373      6.23373         0.032736      0.151883      0.205875
C      0.08601      3.19606      3.19606        -0.010420      0.582038      0.196546
C      0.13007      4.25547      4.25547        -0.093338     -0.177647     -0.192454
C     10.40319      7.29314      3.19606        -0.009215     -0.633900      0.563737
C     10.35913      6.23373      4.25547        -0.043372      0.261418     -0.608807
C      7.29314     10.40319      3.19606        -0.294256      0.026007      0.953156
C      6.23373     10.35913      4.25547         0.167417      0.033293     -0.128796
C      7.29314      0.08601      7.29314        -0.309898     -0.034876     -0.301495
C      6.23373      0.13007      6.23373         0.330963     -0.050313      0.319912
C      3.19606      0.08601      3.19606         0.515164     -0.030261      0.692193
C      4.25547      0.13007      4.25547        -0.093721     -0.027338     -0.369450
C      3.19606     10.40319      7.29314         0.706776      0.000568     -0.419019
C      4.25547     10.35913      6.23373        -0.158068      0.027795      0.083862
C      3.19606      7.29314     10.40319         0.681760     -1.289208     -0.012977
C      4.25547      6.23373     10.35913        -0.658503      0.910095      0.076778
C      7.29314      7.29314      0.08601        -0.705660     -0.181917     -0.017944
C      6.23373      6.23373      0.13007         0.219762      0.198431      0.020066
C      3.19606      3.19606      0.08601         0.270760      0.299275     -0.020917
C      4.25547      4.25547      0.13007        -0.070604     -0.040674     -0.003405
C      7.29314      3.19606     10.40319        -0.358925      1.009186      0.016203
C      6.23373      4.25547     10.35913         1.071131     -0.018132      0.006013
O     10.43466      3.58206      8.50569        -0.042097      0.050239      0.388654
O     10.54374     17.39634      8.50569        -0.044353     -0.175174      0.594919
O     10.54374      3.58206     12.47271         0.048705      0.080411     -0.331168
O     10.43466     17.39634     12.47271        -0.009167     -0.141391     -0.634725
O      8.50569     10.43466      3.58206         0.324534     -0.033580     -0.035816
O      8.50569     10.54374     17.39634         0.472809      0.042986     -0.145209
O     12.47271     10.54374      3.58206        -0.475712      0.009815      0.087910
O     12.47271     10.43466     17.39634        -0.792855     -0.000134     -0.188136
O      3.58206      8.50569     10.43466         0.110045      1.044398      0.015708
O     17.39634      8.50569     10.54374        -0.025196      0.303444      0.074101
O      3.58206     12.47271     10.54374         0.073524     -0.466348      0.049818
O     17.39634     12.47271     10.43466        -0.176535     -0.896393      0.057520
O      3.58206     10.43466      8.50569        -0.061043     -0.068357      0.337293
O     17.39634     10.54374      8.50569        -0.130390      0.040588      0.461796
O      3.58206     10.54374     12.47271         0.096115     -0.023184     -0.639679
O     17.39634     10.43466     12.47271        -0.192171      0.056762     -0.801174
O     10.43466      8.50569      3.58206         0.026978      0.636274      0.158078
O     10.54374      8.50569     17.39634         0.061899      0.434840     -0.078872
O     10.54374     12.47271      3.58206        -0.004147     -0.686995      0.219875
O     10.43466     12.47271     17.39634         0.032672     -0.845276     -0.239984
O      8.50569      3.58206     10.43466         0.436264      0.020541     -0.040958
O      8.50569     17.39634     10.54374         0.705874     -0.263593     -0.067286
O     12.47271      3.58206     10.54374        -0.461497      0.152076      0.041947
O     12.47271     17.39634     10.43466        -0.561318     -0.023146     -0.005597
O     11.90042     11.90042     19.56718        -0.294151     -0.314199      0.255984
O     19.56718     19.56718     19.56718         0.283011      0.259128      0.310086
O     19.56718     11.90042     11.90042         0.257679     -0.323028     -0.248439
O     11.90042     19.56718     11.90042        -0.272846      0.275610     -0.268717
O      9.45224      1.03696      9.45224        -0.083293      0.039916     -0.072505
O      1.03696      9.45224      9.45224         0.010725     -0.174086     -0.099862
O      1.03696      1.03696      1.03696         0.002505      0.069075      0.175583
O      9.45224      9.45224      1.03696        -0.063430     -0.106320      0.102164
Zr     10.48920      2.52580     10.48920         0.004325     -0.096082     -0.043668
Zr     10.48920     18.45260     10.48920         0.141745      0.372825      0.013613
Zr     10.48920     10.48920      2.52580         0.011946     -0.011053     -0.360312
Zr     10.48920     10.48920     18.45260        -0.151154     -0.045767      0.373980
Zr      2.52580     10.48920     10.48920        -0.335235      0.244838     -0.113825
Zr     18.45260     10.48920     10.48920         0.281046     -0.011246     -0.280268
Pd      8.97249     10.11106     13.31069        -0.040790     -0.017219      0.017338
Pd     10.67329      9.69875     10.85475        -0.001786     -0.018147     -0.063695
Pd     13.71406      8.36699     12.58039        -0.014204      0.035597      0.009985
Pd     10.99334     10.90520     14.95481        -0.024603     -0.014610      0.015855
Pd     12.90947     10.99872     12.95355         0.009092      0.026259      0.036224
Pd     15.11161     11.09303     11.31301        -0.015572     -0.025333      0.004330
Pd      6.58207      7.72501     12.33012         0.000267      0.018797      0.011127
Pd      9.31246      7.27999      9.86742        -0.002538      0.005726     -0.023079
Pd      9.21021      7.45991     12.63363         0.007370     -0.008466     -0.018560
Pd     11.61697      7.13901     11.42893         0.007218      0.019501     -0.018039
Pd     11.70552      7.98381      8.92099        -0.000272     -0.023149     -0.044141
Pd      7.38873     11.77088     11.76490        -0.017202     -0.000621      0.001522
Pd      9.21999     14.79510      9.44968         0.002958     -0.035888      0.003437
Pd      8.41571     12.54913     14.23899        -0.020596     -0.009584      0.003561
Pd     14.09378     14.24629      8.31625         0.007936     -0.007075      0.001262
Pd     11.50053     13.64838      8.72450         0.011382     -0.013700      0.021331
Pd     14.16695     11.68737      8.89686        -0.000625     -0.003260     -0.000410
Pd      8.73289     14.02717     12.05222        -0.001421     -0.013981      0.013548
Pd     12.27007     13.47686     14.12996        -0.010428      0.025306     -0.002378
Pd     11.35371     14.42703     11.44346         0.004932     -0.033244      0.004969
Pd     14.08970     13.59088     12.27490        -0.008562     -0.014626     -0.009678
Pd     12.43197     12.17021     10.72657        -0.021905     -0.047471      0.014931
Pd     12.75356     12.50316      6.68962         0.002710      0.009615     -0.002382
Pd     13.93628      9.00113      8.01506         0.009178     -0.011725     -0.033839
Pd      6.93408      8.49145      8.75133         0.006935     -0.005952     -0.009964
Pd      5.62408     10.11041     10.69493        -0.005756     -0.012301     -0.035542
Pd      9.40066      9.44434      8.12334        -0.003490     -0.011051     -0.051881
Pd      8.56237      7.00953      7.23927        -0.012439     -0.014963     -0.013985
Pd      9.76731     12.13795     10.31967         0.010964     -0.023432      0.063840
Pd     11.64443     10.80149      8.51432        -0.004614     -0.007409     -0.038900
Pd     11.58735      9.10036      6.48438         0.009187     -0.001927     -0.029898
Pd     10.07600     11.36275      6.39114         0.014317     -0.012249     -0.059212
Ir     11.27954      8.99195     13.21701        -0.031830      0.032459     -0.055285
Ir     13.21531      9.61743     10.40335        -0.001250     -0.040204     -0.015390
Ir     10.55759     12.20446     12.71043        -0.027732     -0.025860      0.002799
Ir      7.61205     10.99563      9.23836         0.011916     -0.014000     -0.016453
Ir      8.78126     12.66567      8.07882         0.064254     -0.014268      0.000944
Ir      8.18351      9.29614     11.00012        -0.004525     -0.003439     -0.006866
