152
# total energy = -1110.36524836 eVH     10.35389      5.87395      7.64558        -0.344629     -0.156193      1.036525
H     10.62451     15.10445      7.64558         0.378094      0.088483      0.943781
H     10.62451      5.87395     13.33282        -0.308671     -0.711133     -1.406355
H     10.35389     15.10445     13.33282        -0.633652      0.380251     -0.323043
H      7.64558     10.35389      5.87395         0.543966     -0.540118     -0.083353
H      7.64558     10.62451     15.10445         0.358777     -0.241089      0.039826
H     13.33282     10.62451      5.87395        -0.528276      0.613882     -0.018142
H     13.33282     10.35389     15.10445        -0.530906      0.415540      0.163551
H      5.87395      7.64558     10.35389         0.142219      0.501674      0.034876
H     15.10445      7.64558     10.62451         0.430822      0.866128      0.252462
H      5.87395     13.33282     10.62451        -0.228477     -0.448975      0.363609
H     15.10445     13.33282     10.35389         0.030991     -0.310396     -0.391474
H      5.87395     10.35389      7.64558        -0.072165     -0.354365      1.442909
H     15.10445     10.62451      7.64558         0.204186      0.418320      1.262618
H      5.87395     10.62451     13.33282        -0.151106     -0.339298     -1.131841
H     15.10445     10.35389     13.33282         0.542225      0.891179     -1.515753
H     10.35389      7.64558      5.87395        -0.535551      0.496919     -0.194185
H     10.62451      7.64558     15.10445        -0.137285      0.538761      0.196544
H     10.62451     13.33282      5.87395         0.903070     -1.400778     -0.329700
H     10.35389     13.33282     15.10445         0.282123     -0.548189     -0.074950
H      7.64558      5.87395     10.35389         0.721739      0.173965     -0.142859
H      7.64558     15.10445     10.62451         1.972142      0.811952      0.191197
H     13.33282      5.87395     10.62451        -2.693898     -0.989085     -0.435599
H     13.33282     15.10445     10.35389        -0.871384     -0.042714     -0.254034
H     12.45634     12.45634     19.01126         0.271844      0.257786     -0.227483
H     19.01126     19.01126     19.01126        -0.266715     -0.254597     -0.238149
H     19.01126     12.45634     12.45634        -0.282754      0.281077      0.186980
H     12.45634     19.01126     12.45634         0.256105     -0.251792      0.235805
C     10.35284      5.61067      6.59456         0.095839     -0.500955     -1.251805
C     10.62556     15.36773      6.59456         0.166015      0.768796     -0.848899
C     10.62556      5.61067     14.38384         0.173466     -0.323578      1.815906
C     10.35284     15.36773     14.38384         0.118177      0.397614      1.806867
C      6.59456     10.35284      5.61067        -1.120293     -0.111255     -0.849046
C      6.59456     10.62556     15.36773        -0.679009     -0.105950      0.734308
C     14.38384     10.62556      5.61067         0.883286     -0.115297     -1.000440
C     14.38384     10.35284     15.36773         1.207735      0.164984      1.105576
C      5.61067      6.59456     10.35284        -0.687016     -0.811833     -0.164782
C     15.36773      6.59456     10.62556         1.949377     -0.200329     -0.179339
C      5.61067     14.38384     10.62556        -1.576423     -0.008276     -0.115548
C     15.36773     14.38384     10.35284         0.486169      0.051176      0.029716
C      5.61067     10.35284      6.59456        -0.269521      0.204761     -1.356182
C     15.36773     10.62556      6.59456         0.277347     -0.203417     -1.001773
C      5.61067     10.62556     14.38384        -0.275998      0.386431      1.417042
C     15.36773     10.35284     14.38384         0.068362     -0.431737      1.908897
C     10.35284      6.59456      5.61067        -0.198132     -0.918534     -0.690595
C     10.62556      6.59456     15.36773        -0.100197     -0.803558      1.046933
C     10.62556     14.38384      5.61067        -0.486244      2.045813     -0.783588
C     10.35284     14.38384     15.36773        -0.293258      1.467804      0.470917
C      6.59456      5.61067     10.35284        -0.960256     -0.413627      0.077925
C      6.59456     15.36773     10.62556        -1.337015      0.349835     -0.334062
C     14.38384      5.61067     10.62556         1.300255     -1.161538      0.153026
C     14.38384     15.36773     10.35284         0.407106      0.317689      0.057806
C     10.40319      3.19606      7.29314         0.002944      0.311465     -0.098453
C     10.35913      4.25547      6.23373         0.137383     -0.512506      0.027397
C      0.08601      7.29314      7.29314        -0.053950     -0.307338     -0.431030
C      0.13007      6.23373      6.23373        -0.126258      0.720434      0.042581
C      0.08601      3.19606      3.19606        -0.109600      1.624605      0.173407
C      0.13007      4.25547      4.25547        -0.087117     -0.408843     -1.245504
C     10.40319      7.29314      3.19606         0.016789     -0.425755      0.130602
C     10.35913      6.23373      4.25547         0.260188      0.078905     -0.490252
C      7.29314     10.40319      3.19606        -1.663649      0.005550      0.327276
C      6.23373     10.35913      4.25547         0.653897      0.077551     -0.611158
C      7.29314      0.08601      7.29314        -0.398767     -0.010042     -0.297572
C      6.23373      0.13007      6.23373         0.634070     -0.053406      0.273450
C      3.19606      0.08601      3.19606         0.662647     -0.015720      0.188395
C      4.25547      0.13007      4.25547        -0.373682     -0.063731     -0.494602
C      3.19606     10.40319      7.29314         0.380257      0.018455     -0.319710
C      4.25547     10.35913      6.23373        -0.728986      0.060158      0.373996
C      3.19606      7.29314     10.40319         0.304409     -0.217508     -0.006136
C      4.25547      6.23373     10.35913         0.054614      0.648533      0.093604
C      7.29314      7.29314      0.08601        -0.718894     -0.595959     -0.016251
C      6.23373      6.23373      0.13007         0.815163      1.143387     -0.077383
C      3.19606      3.19606      0.08601         0.807778      0.489427      0.012967
C      4.25547      4.25547      0.13007        -0.324656     -1.715298     -0.120045
C      7.29314      3.19606     10.40319        -0.332769      0.278760     -0.003375
C      6.23373      4.25547     10.35913         0.520462     -0.035307      0.229741
O     10.43466      3.58206      8.50569        -0.047460      0.180827      0.257841
O     10.54374     17.39634      8.50569         0.041350     -0.231595      0.485630
O     10.54374      3.58206     12.47271         0.085512     -0.058147     -0.042454
O     10.43466     17.39634     12.47271        -0.022990     -0.140005     -0.280490
O      8.50569     10.43466      3.58206         0.983370      0.182066      0.389184
O      8.50569     10.54374     17.39634         0.566361      0.083653     -0.226959
O     12.47271     10.54374      3.58206        -0.430217     -0.038451      0.189058
O     12.47271     10.43466     17.39634        -0.525232     -0.070834     -0.200004
O      3.58206      8.50569     10.43466         0.179069      0.439139     -0.031070
O     17.39634      8.50569     10.54374        -0.228406      0.714247      0.042171
O      3.58206     12.47271     10.54374         0.159102     -0.666101      0.024139
O     17.39634     12.47271     10.43466        -0.185313     -0.484013     -0.013237
O      3.58206     10.43466      8.50569         0.220856     -0.058974      0.400569
O     17.39634     10.54374      8.50569        -0.169346      0.036818      0.409826
O      3.58206     10.54374     12.47271         0.143121      0.021180     -0.307723
O     17.39634     10.43466     12.47271         0.067365     -0.050180     -0.089243
O     10.43466      8.50569      3.58206        -0.001413      0.277460      0.178701
O     10.54374      8.50569     17.39634         0.071072      0.439813     -0.182757
O     10.54374     12.47271      3.58206        -0.222451     -0.965743      0.346881
O     10.43466     12.47271     17.39634        -0.084965     -0.449039     -0.244897
O      8.50569      3.58206     10.43466         0.498403      0.195296     -0.013329
O      8.50569     17.39634     10.54374         0.657991     -0.193945      0.022694
O     12.47271      3.58206     10.54374        -0.735634      0.277841      0.036557
O     12.47271     17.39634     10.43466        -0.443577     -0.199688     -0.044394
O     11.90042     11.90042     19.56718        -0.345189     -0.307438      0.258674
O     19.56718     19.56718     19.56718         0.325865      0.310732      0.281512
O     19.56718     11.90042     11.90042         0.278434     -0.278282     -0.141346
O     11.90042     19.56718     11.90042        -0.307185      0.288058     -0.233990
O      9.45224      1.03696      9.45224        -0.057137      0.070825     -0.048619
O      1.03696      9.45224      9.45224         0.035193     -0.072778     -0.073246
O      1.03696      1.03696      1.03696         0.057053      0.138410      0.104942
O      9.45224      9.45224      1.03696        -0.131186     -0.089036      0.104515
Zr     10.48920      2.52580     10.48920         0.144169     -0.163398     -0.161149
Zr     10.48920     18.45260     10.48920        -0.092241      0.179518     -0.041454
Zr     10.48920     10.48920      2.52580         0.326408     -0.309643     -0.197881
Zr     10.48920     10.48920     18.45260         0.002814     -0.083961      0.209604
Zr      2.52580     10.48920     10.48920        -0.064199      0.163405     -0.050949
Zr     18.45260     10.48920     10.48920         0.136038     -0.121888     -0.247053
Ir     12.05972     12.49066     10.46466         0.015541     -0.016448     -0.053583
Ir     11.15645      7.41615     10.32416         0.027511      0.004140     -0.003404
Ir      8.80413      7.39498     11.58665         0.024725     -0.000695     -0.017612
Ir      7.48499     11.66588      7.65226        -0.005212     -0.016387      0.003307
Ir     11.59718     12.09494      7.12353         0.012740      0.016375      0.026420
Ir     13.73947      8.97394      7.56414         0.019864      0.018825     -0.019347
Ir     12.50535     13.95467      8.42030        -0.018130     -0.031084      0.006154
Ir      9.71789     11.26697      5.57032        -0.006522      0.007981     -0.016672
Ir      9.08631     13.47181      7.07527         0.003245      0.005943     -0.002803
Ir      9.29123      9.66383      7.53672        -0.011026     -0.006542      0.003753
Ir     13.25466      7.04150     11.95118         0.006380      0.004624      0.011289
Ir     13.54283      7.02481      9.12082         0.044394     -0.001729      0.014646
Ir     11.01491      7.60958     12.86566         0.023460     -0.014304     -0.025389
Ir     13.61697     11.55652      8.75824        -0.018816      0.023819      0.000543
Ir     11.50572      9.66172      6.23849         0.007000     -0.019792     -0.001416
Ir      7.14322      9.20338      8.94802         0.012665     -0.019810     -0.004743
Ir     14.05816     11.41688     11.66584         0.008926      0.019648     -0.008829
Ir     11.65208      9.87212      8.90450        -0.017742      0.015046     -0.013378
Ir      9.42702      9.53538     10.25585        -0.017280     -0.024618     -0.008393
Ir     13.85456      9.39077     10.19180         0.024177     -0.002125     -0.003879
Ir     13.80311      9.15079     12.91937         0.013348     -0.007171     -0.006449
Ir     11.68351      9.76615     11.57774        -0.009625     -0.004722     -0.017255
Ir      9.91484     11.76412      8.97941         0.013154     -0.032484     -0.000364
Ir      9.02809      7.44199      8.85362         0.035650      0.010751     -0.016109
Ir     11.50134      7.59536      7.79718         0.032847     -0.026627     -0.033838
Ir      9.24372      9.51133     13.02351        -0.003422     -0.019545     -0.014952
Ir      7.53099     13.93039      8.98866        -0.006989     -0.004496      0.008218
Ir     10.91111     14.13168     11.94431        -0.021592      0.010557      0.025243
Ir     10.12963     14.17981      9.52093        -0.000068     -0.005563     -0.003975
Ir      9.80413     11.71416     11.72870        -0.020572     -0.024917     -0.008993
Ir      7.59281     11.60968     10.20891        -0.007596     -0.033210      0.013468
Ir      8.37913     13.77711     11.58480        -0.013688     -0.014360      0.002976
Ir      7.53068     11.61154     12.82968         0.000119     -0.021499      0.000314
Ir      9.76573     11.64351     14.34477        -0.000123     -0.008520      0.005728
Ir     13.50510     13.87580     12.19414        -0.005297      0.002415      0.000590
Ir     11.99718     12.06389     13.08904         0.009490     -0.005264      0.008379
Ir     11.56734      9.82433     14.21417         0.004836     -0.005744     -0.005304
Ir      7.13741      9.41694     11.50608         0.023343     -0.026646     -0.009168
