152
# total energy = -1060.08626570 eVH     10.35389      5.87395      7.64558        -0.280842      0.043200      1.127312
H     10.62451     15.10445      7.64558         0.081738     -0.086851      0.928098
H     10.62451      5.87395     13.33282        -0.258249      0.076480     -0.786505
H     10.35389     15.10445     13.33282         0.094700     -0.303017     -0.865580
H      7.64558     10.35389      5.87395         0.931416     -0.136482      0.188321
H      7.64558     10.62451     15.10445         0.328793     -0.036287     -0.071917
H     13.33282     10.62451      5.87395        -0.860558      0.194669      0.205482
H     13.33282     10.35389     15.10445        -0.278011     -0.014299     -0.068337
H      5.87395      7.64558     10.35389         0.088441      0.416662     -0.009850
H     15.10445      7.64558     10.62451        -0.004397      0.491159     -0.031822
H      5.87395     13.33282     10.62451        -0.015040     -0.961253      0.081017
H     15.10445     13.33282     10.35389        -0.084654     -0.319547      0.004065
H      5.87395     10.35389      7.64558         0.285329      0.110643      0.404376
H     15.10445     10.62451      7.64558        -0.123470     -0.172700      0.666205
H      5.87395     10.62451     13.33282        -0.082789      0.463804     -0.617801
H     15.10445     10.35389     13.33282         0.243545     -0.620803     -0.832102
H     10.35389      7.64558      5.87395        -0.040515      0.486116      0.335755
H     10.62451      7.64558     15.10445         0.269327      0.785332     -0.026793
H     10.62451     13.33282      5.87395         0.127813     -0.574540      0.208173
H     10.35389     13.33282     15.10445         0.038710     -0.287973     -0.146988
H      7.64558      5.87395     10.35389         0.348000      0.101503      0.032973
H      7.64558     15.10445     10.62451         0.379376     -0.118871      0.168378
H     13.33282      5.87395     10.62451        -0.315158      0.130965     -0.028878
H     13.33282     15.10445     10.35389        -0.653838     -0.126881      0.147512
H     12.45634     12.45634     19.01126         0.256010      0.271368     -0.228458
H     19.01126     19.01126     19.01126        -0.246536     -0.268047     -0.245508
H     19.01126     12.45634     12.45634        -0.250792      0.269908      0.235506
H     12.45634     19.01126     12.45634         0.290363     -0.235579      0.234759
C     10.35284      5.61067      6.59456         0.400530     -0.417484     -1.424505
C     10.62556     15.36773      6.59456        -0.153935      0.591068     -0.647800
C     10.62556      5.61067     14.38384         0.381590     -0.337255      0.826750
C     10.35284     15.36773     14.38384        -0.223129      0.222717      1.076059
C      6.59456     10.35284      5.61067        -1.377238      0.021393     -0.230074
C      6.59456     10.62556     15.36773        -0.647749      0.063691      0.365713
C     14.38384     10.62556      5.61067         1.306265     -0.168324     -0.633429
C     14.38384     10.35284     15.36773         0.353829     -0.124642      0.356237
C      5.61067      6.59456     10.35284        -0.286623     -0.652363     -0.021828
C     15.36773      6.59456     10.62556         0.419568     -0.957433      0.033407
C      5.61067     14.38384     10.62556        -0.136978      1.165333     -0.186002
C     15.36773     14.38384     10.35284         0.470391      0.654445     -0.027213
C      5.61067     10.35284      6.59456        -0.373043     -0.099706     -0.733660
C     15.36773     10.62556      6.59456         0.405986      0.117160     -0.731091
C      5.61067     10.62556     14.38384        -0.387141     -0.171414      1.232635
C     15.36773     10.35284     14.38384         0.264831      0.191451      1.460069
C     10.35284      6.59456      5.61067        -0.055550     -0.723362     -0.595064
C     10.62556      6.59456     15.36773        -0.115341     -0.905223      0.351734
C     10.62556     14.38384      5.61067        -0.474560      0.405229     -0.714345
C     10.35284     14.38384     15.36773        -0.159999      0.622861      0.425199
C      6.59456      5.61067     10.35284        -0.517031     -0.333573      0.023860
C      6.59456     15.36773     10.62556        -0.371632      0.448018      0.058836
C     14.38384      5.61067     10.62556         0.446753     -0.367854      0.001676
C     14.38384     15.36773     10.35284         1.120880      0.498554     -0.072983
C     10.40319      3.19606      7.29314        -0.001672      0.689517     -0.337361
C     10.35913      4.25547      6.23373         0.011107     -0.423257      0.289319
C      0.08601      7.29314      7.29314        -0.014734     -0.367082     -0.505378
C      0.13007      6.23373      6.23373        -0.068015      0.860073      0.067163
C      0.08601      3.19606      3.19606        -0.003549      0.682094      0.265768
C      0.13007      4.25547      4.25547         0.032946     -0.268940     -0.544038
C     10.40319      7.29314      3.19606        -0.066884     -1.150040      0.583055
C     10.35913      6.23373      4.25547        -0.038621      0.363108     -0.197515
C      7.29314     10.40319      3.19606        -1.083477     -0.056685      0.194403
C      6.23373     10.35913      4.25547         0.366558      0.086407     -0.540760
C      7.29314      0.08601      7.29314        -0.434604      0.033163     -0.519187
C      6.23373      0.13007      6.23373         0.184149      0.127869      0.127900
C      3.19606      0.08601      3.19606         0.692765      0.024587      0.167340
C      4.25547      0.13007      4.25547        -0.173449     -0.051069     -0.355070
C      3.19606     10.40319      7.29314         0.385026     -0.025830     -0.897431
C      4.25547     10.35913      6.23373        -0.152103     -0.076451      0.100309
C      3.19606      7.29314     10.40319         0.606311     -0.397851      0.002746
C      4.25547      6.23373     10.35913        -0.112953      0.182625      0.001552
C      7.29314      7.29314      0.08601        -0.412714     -0.314773     -0.015103
C      6.23373      6.23373      0.13007         0.179392      0.187178     -0.065277
C      3.19606      3.19606      0.08601         0.289558      0.480132     -0.024277
C      4.25547      4.25547      0.13007        -0.404936     -0.231262     -0.035183
C      7.29314      3.19606     10.40319        -0.278323      0.592703     -0.010799
C      6.23373      4.25547     10.35913         0.005371     -0.109640      0.019818
O     10.43466      3.58206      8.50569        -0.027947      0.091919      0.319122
O     10.54374     17.39634      8.50569         0.062507     -0.129452      0.593992
O     10.54374      3.58206     12.47271         0.027983      0.106266     -0.393218
O     10.43466     17.39634     12.47271         0.090585     -0.048008     -0.389698
O      8.50569     10.43466      3.58206         0.710226     -0.062441      0.012542
O      8.50569     10.54374     17.39634         0.483900      0.057584     -0.080626
O     12.47271     10.54374      3.58206        -0.647922      0.116065      0.204699
O     12.47271     10.43466     17.39634        -0.283959     -0.003205      0.022977
O      3.58206      8.50569     10.43466         0.039796      0.459933     -0.067976
O     17.39634      8.50569     10.54374        -0.058452      0.452124      0.056735
O      3.58206     12.47271     10.54374         0.113858     -0.583256      0.001830
O     17.39634     12.47271     10.43466        -0.172421     -0.742113     -0.056049
O      3.58206     10.43466      8.50569         0.211798     -0.061658      0.787791
O     17.39634     10.54374      8.50569        -0.098830      0.075995      0.554262
O      3.58206     10.54374     12.47271        -0.000537     -0.003122     -0.268456
O     17.39634     10.43466     12.47271         0.038138     -0.012307     -0.226439
O     10.43466      8.50569      3.58206        -0.104876      0.567683     -0.113603
O     10.54374      8.50569     17.39634         0.067168      0.505089     -0.088165
O     10.54374     12.47271      3.58206         0.104767     -0.625738      0.133585
O     10.43466     12.47271     17.39634        -0.060762     -0.656396     -0.255990
O      8.50569      3.58206     10.43466         0.395129      0.026015     -0.036940
O      8.50569     17.39634     10.54374         0.631918     -0.155140      0.047700
O     12.47271      3.58206     10.54374        -0.508897      0.126513      0.034963
O     12.47271     17.39634     10.43466        -0.622252     -0.132080      0.040369
O     11.90042     11.90042     19.56718        -0.274293     -0.307324      0.232503
O     19.56718     19.56718     19.56718         0.304064      0.318997      0.299423
O     19.56718     11.90042     11.90042         0.284833     -0.324836     -0.232530
O     11.90042     19.56718     11.90042        -0.316081      0.229296     -0.202905
O      9.45224      1.03696      9.45224        -0.082852      0.085240     -0.069602
O      1.03696      9.45224      9.45224         0.102405     -0.116080     -0.048793
O      1.03696      1.03696      1.03696         0.083904      0.055897      0.096942
O      9.45224      9.45224      1.03696        -0.060724     -0.131848      0.130958
Zr     10.48920      2.52580     10.48920         0.032607     -0.089319      0.083708
Zr     10.48920     18.45260     10.48920        -0.172971      0.259735     -0.346994
Zr     10.48920     10.48920      2.52580         0.119440      0.355729     -0.346242
Zr     10.48920     10.48920     18.45260        -0.082878     -0.211171      0.193292
Zr      2.52580     10.48920     10.48920        -0.254055      0.129282      0.231945
Zr     18.45260     10.48920     10.48920         0.223698     -0.117044     -0.002302
Pd      9.39657     14.26689      9.35444        -0.001199      0.037172     -0.037963
Pd      8.61112     13.69104     12.99178        -0.014843     -0.021575      0.034066
Pd     12.03813     14.41460      8.73863         0.008261     -0.008837      0.002169
Pd     12.76724     12.82299     10.63120        -0.025965      0.006469      0.036350
Pd     12.14446      7.11932     12.61901        -0.004612      0.009253      0.003973
Pd     11.21025     14.83972     11.49949        -0.018627      0.032933     -0.024487
Pd     10.07520     12.50264     11.11521        -0.044906      0.051625     -0.036613
Pd     13.48401     12.13554      7.98058         0.012768      0.013279      0.004513
Pd     11.48064     11.55815      6.11302         0.007508      0.004746     -0.004157
Pd      7.86171      8.54824      7.54198         0.012974     -0.046034     -0.013104
Pd      8.73611     11.73252      6.88427        -0.007597      0.011984     -0.015654
Pd     10.30897      9.46737      8.14602        -0.010799     -0.005287      0.000713
Pd      8.50923     14.43762      6.83925        -0.012425      0.015631     -0.030569
Pd     12.36544      9.03402      6.58539        -0.000777      0.006014      0.013214
Pd      9.74392      9.61053      5.55429         0.000058      0.005751      0.003195
Pd      6.86027      9.45526     12.18394         0.002617     -0.000949     -0.012132
Pd     12.20833      6.69302      7.87914        -0.001681      0.014020      0.018617
Pd      5.94829     10.46112      9.72342        -0.012623     -0.006809     -0.002645
Pd      7.57454      7.14428     13.27833        -0.002258      0.023236      0.048128
Ir     11.79262      9.70576     13.05841        -0.037676     -0.002427      0.003578
Ir     13.57672      8.99718     11.44695        -0.022581      0.017195      0.006656
Ir      9.42551      8.82627     13.90387        -0.008508      0.014598      0.067309
Ir     10.55710     10.92739     14.87701        -0.015074     -0.017728      0.039654
Ir      7.28550     12.02439     11.36782        -0.008315     -0.014927     -0.001583
Ir     14.69079     10.84207     10.10240        -0.018073      0.029867      0.037364
Ir     12.19784     10.49212      9.65849         0.019367     -0.009419     -0.017356
Ir      8.77906     11.02919     13.01381         0.015343     -0.010883     -0.020003
Ir     10.14155      9.86493     11.21177        -0.012611      0.033201     -0.044055
Ir     13.76134     11.36664     12.41758        -0.045906      0.013811      0.049385
Ir     11.64348     12.29865     13.10693        -0.079792     -0.015962     -0.000640
Ir      8.52842     11.07901      9.38097        -0.017549      0.011477     -0.027388
Ir     11.59677      7.97894     10.07515         0.017545      0.017864      0.012216
Ir      7.24108     13.00702      8.69832         0.005624      0.022099      0.000759
Ir      9.51867      7.00106      9.11859         0.010813     -0.017035      0.036843
Ir      8.06800      8.74924     10.09781        -0.017314      0.022379     -0.005235
Ir     10.75879     12.09784      8.53662        -0.015202      0.011557     -0.022184
Ir      9.56295      7.46236     11.67289        -0.013936      0.062578      0.042567
Ir     13.69753      8.70792      8.80611        -0.006579      0.023766      0.028121
