152
# total energy = -1091.82143025 eVH     10.35389      5.87395      7.64558         0.875307     -1.398590      1.568141
H     10.62451     15.10445      7.64558        -0.723466      1.301358      1.935961
H     10.62451      5.87395     13.33282         0.807867     -0.552362     -2.023703
H     10.35389     15.10445     13.33282        -0.833571      0.632508     -1.858695
H      7.64558     10.35389      5.87395         0.380725     -0.130882      0.030675
H      7.64558     10.62451     15.10445         0.627556     -0.234666      0.160511
H     13.33282     10.62451      5.87395        -0.434199      0.026743      0.106094
H     13.33282     10.35389     15.10445        -0.641573      0.253728      0.041355
H      5.87395      7.64558     10.35389        -0.016764      1.273566      0.015326
H     15.10445      7.64558     10.62451        -0.016971      0.664452     -0.016545
H      5.87395     13.33282     10.62451        -0.062634     -0.587267     -0.008105
H     15.10445     13.33282     10.35389         0.140972     -1.262284      0.043914
H      5.87395     10.35389      7.64558        -0.108972      0.023624      0.217921
H     15.10445     10.62451      7.64558         0.194567      0.080236      0.271447
H      5.87395     10.62451     13.33282        -0.113685      0.289071     -0.565616
H     15.10445     10.35389     13.33282        -0.005216     -0.255141     -0.251073
H     10.35389      7.64558      5.87395        -0.225265      0.694723     -0.094616
H     10.62451      7.64558     15.10445         0.234857      0.669895      0.343562
H     10.62451     13.33282      5.87395        -0.187309     -1.056289     -0.170387
H     10.35389     13.33282     15.10445        -0.148758     -0.783737      0.287871
H      7.64558      5.87395     10.35389         0.596323     -0.082238     -0.107153
H      7.64558     15.10445     10.62451         0.823753     -0.021791     -0.029704
H     13.33282      5.87395     10.62451        -0.726034     -0.006312      0.165800
H     13.33282     15.10445     10.35389        -0.548465      0.174393     -0.047739
H     12.45634     12.45634     19.01126         0.258341      0.252666     -0.241994
H     19.01126     19.01126     19.01126        -0.258248     -0.249938     -0.242608
H     19.01126     12.45634     12.45634        -0.248978      0.268543      0.236826
H     12.45634     19.01126     12.45634         0.252556     -0.271223      0.231128
C     10.35284      5.61067      6.59456        -0.469540      0.051769     -2.044904
C     10.62556     15.36773      6.59456         0.384488     -0.131412     -2.116718
C     10.62556      5.61067     14.38384        -0.281266     -0.354081      2.059736
C     10.35284     15.36773     14.38384         0.326678      0.139170      1.883344
C      6.59456     10.35284      5.61067        -0.568587     -0.016565     -0.251957
C      6.59456     10.62556     15.36773        -0.982457     -0.048072      0.460816
C     14.38384     10.62556      5.61067         0.635897      0.004084     -0.211931
C     14.38384     10.35284     15.36773         0.831710     -0.063093      0.289113
C      5.61067      6.59456     10.35284        -0.184409     -0.582172      0.125452
C     15.36773      6.59456     10.62556         0.280036     -1.077018      0.003276
C      5.61067     14.38384     10.62556        -0.380878      1.067875      0.030573
C     15.36773     14.38384     10.35284         0.354673      0.914093      0.052369
C      5.61067     10.35284      6.59456        -0.660586      0.093687     -1.838833
C     15.36773     10.62556      6.59456         0.628961      0.030048     -1.854804
C      5.61067     10.62556     14.38384        -0.737727      0.005589      1.962093
C     15.36773     10.35284     14.38384         0.638270     -0.083394      1.490312
C     10.35284      6.59456      5.61067         0.032840     -1.527637     -0.802239
C     10.62556      6.59456     15.36773         0.026534     -1.871139      1.106267
C     10.62556     14.38384      5.61067         0.090290      1.616396     -0.798985
C     10.35284     14.38384     15.36773        -0.097481      1.894145      1.000468
C      6.59456      5.61067     10.35284        -0.147678     -0.806188     -0.138831
C      6.59456     15.36773     10.62556        -1.615020      0.523039      0.007757
C     14.38384      5.61067     10.62556         1.749594     -0.654072     -0.083411
C     14.38384     15.36773     10.35284         0.300878      1.016338     -0.036935
C     10.40319      3.19606      7.29314        -0.012917      0.613165     -0.323334
C     10.35913      4.25547      6.23373         0.078113     -0.844024      0.704491
C      0.08601      7.29314      7.29314        -0.009590     -0.611214     -0.336790
C      0.13007      6.23373      6.23373        -0.127799      0.871472      0.800380
C      0.08601      3.19606      3.19606        -0.056719      0.489918      0.348163
C      0.13007      4.25547      4.25547        -0.003324     -0.980949     -0.485476
C     10.40319      7.29314      3.19606         0.046793     -0.484898      0.318369
C     10.35913      6.23373      4.25547         0.054791      0.754740     -0.570005
C      7.29314     10.40319      3.19606        -0.343928      0.021107      0.715291
C      6.23373     10.35913      4.25547         0.299342     -0.035275     -0.378124
C      7.29314      0.08601      7.29314        -0.384816      0.050497     -0.415021
C      6.23373      0.13007      6.23373         0.178323      0.078231      0.533515
C      3.19606      0.08601      3.19606         0.308074      0.018340      0.833474
C      4.25547      0.13007      4.25547        -0.429733      0.145981     -0.347657
C      3.19606     10.40319      7.29314         0.428846     -0.000618     -0.646255
C      4.25547     10.35913      6.23373        -0.326495      0.000773      0.623563
C      3.19606      7.29314     10.40319         0.308497     -0.547808     -0.000372
C      4.25547      6.23373     10.35913        -0.830289      0.333222      0.006742
C      7.29314      7.29314      0.08601        -0.359714     -0.196251     -0.000731
C      6.23373      6.23373      0.13007         0.074883      0.363400     -0.037253
C      3.19606      3.19606      0.08601         0.359948      0.176355     -0.020271
C      4.25547      4.25547      0.13007        -0.102895     -0.296074     -0.023735
C      7.29314      3.19606     10.40319        -0.385786      0.621452     -0.012833
C      6.23373      4.25547     10.35913         0.611330     -0.736468      0.035004
O     10.43466      3.58206      8.50569        -0.012050      0.160277      0.320841
O     10.54374     17.39634      8.50569         0.012240     -0.175962      0.327346
O     10.54374      3.58206     12.47271         0.070779      0.196659     -0.356932
O     10.43466     17.39634     12.47271        -0.087680     -0.214836     -0.333806
O      8.50569     10.43466      3.58206         0.419078     -0.022167      0.086721
O      8.50569     10.54374     17.39634         0.493934      0.052115     -0.152010
O     12.47271     10.54374      3.58206        -0.354902      0.021841      0.050634
O     12.47271     10.43466     17.39634        -0.487868     -0.050391     -0.119927
O      3.58206      8.50569     10.43466         0.112795      0.525533     -0.031491
O     17.39634      8.50569     10.54374        -0.127502      0.441133      0.037910
O      3.58206     12.47271     10.54374         0.099648     -0.393900      0.050886
O     17.39634     12.47271     10.43466        -0.215560     -0.643969      0.009783
O      3.58206     10.43466      8.50569         0.240274     -0.047420      0.583229
O     17.39634     10.54374      8.50569        -0.158649      0.000427      0.469737
O      3.58206     10.54374     12.47271         0.401852     -0.077495     -0.654163
O     17.39634     10.43466     12.47271        -0.233218      0.004490     -0.644341
O     10.43466      8.50569      3.58206         0.034069      0.541297      0.281430
O     10.54374      8.50569     17.39634         0.082887      0.626640     -0.309092
O     10.54374     12.47271      3.58206         0.017776     -0.589227      0.271755
O     10.43466     12.47271     17.39634        -0.066925     -0.633536     -0.316161
O      8.50569      3.58206     10.43466         0.547121      0.149156     -0.037046
O      8.50569     17.39634     10.54374         0.486189     -0.178673      0.035434
O     12.47271      3.58206     10.54374        -0.491434      0.184074      0.009994
O     12.47271     17.39634     10.43466        -0.528547     -0.166752     -0.024123
O     11.90042     11.90042     19.56718        -0.294014     -0.303863      0.254696
O     19.56718     19.56718     19.56718         0.306049      0.293198      0.258831
O     19.56718     11.90042     11.90042         0.300732     -0.325651     -0.263236
O     11.90042     19.56718     11.90042        -0.284457      0.319434     -0.248925
O      9.45224      1.03696      9.45224        -0.044256      0.032717     -0.095572
O      1.03696      9.45224      9.45224         0.058265     -0.037320     -0.088972
O      1.03696      1.03696      1.03696         0.081758      0.031816      0.099636
O      9.45224      9.45224      1.03696        -0.053479     -0.052930      0.097732
Zr     10.48920      2.52580     10.48920        -0.115319     -0.053854      0.022279
Zr     10.48920     18.45260     10.48920         0.082941      0.080999     -0.021204
Zr     10.48920     10.48920      2.52580        -0.048813      0.048575     -0.217240
Zr     10.48920     10.48920     18.45260        -0.006254      0.002609      0.240426
Zr      2.52580     10.48920     10.48920        -0.151971     -0.002344     -0.117974
Zr     18.45260     10.48920     10.48920         0.183601      0.046427     -0.087149
Pd     13.38026      8.39667      7.98793        -0.022704      0.041168     -0.018255
Pd      8.82973     14.16795     12.05479         0.102787      0.141993     -0.068338
Pd     12.17915     11.19345     10.65576        -0.133663      0.145397     -0.205027
Pd     14.68632     10.92397     11.73117        -0.039494     -0.126772     -0.043839
Pd     11.28440      9.19814      6.44109        -0.114094     -0.106019      0.052199
Pd      7.12041      7.58207      8.63788        -0.003729      0.196482      0.017318
Ir      9.89632     11.71275     11.97879         0.025679     -0.010350     -0.422506
Ir     13.22925      8.74593     10.70890        -0.073768     -0.196479     -0.006812
Ir     12.10604     11.14554      7.97734        -0.021283      0.025692     -0.073171
Ir      8.93103     14.03255      9.29885         0.138146      0.025324     -0.023563
Ir     10.88324      9.25062     11.96096         0.081309      0.125853     -0.060413
Ir      8.70028      9.65899      8.01276         0.017324     -0.065510     -0.152226
Ir     13.44554     12.99195      9.11919         0.156923      0.027095      0.079515
Ir     11.27192     13.52121      7.94355         0.014164     -0.094238     -0.009014
Ir     14.26926     10.54930      9.24904         0.149564     -0.063163      0.017710
Ir      9.69594      7.21271     10.66098        -0.149451     -0.155680      0.044294
Ir      7.70825     12.13476      7.99202         0.015697     -0.067539     -0.170216
Ir      9.68826      7.40695      8.08062        -0.151102      0.127425     -0.114026
Ir     11.39767     13.61416     13.15924        -0.044620      0.107625      0.177283
Ir     11.99018      6.96605     12.12693        -0.107237      0.025472     -0.197164
Ir      9.86585     11.60407      9.31861         0.082269      0.016510      0.056846
Ir     13.27793      8.76654     13.33480         0.185641     -0.114662      0.030358
Ir     11.00724      9.19584      9.30288        -0.036825      0.029982     -0.026448
Ir     11.12109     13.67366     10.53104         0.081364      0.021845     -0.027986
Ir     13.38423     13.22044     11.87029         0.126354     -0.035296     -0.032546
Ir     12.20712     11.22987     13.27230         0.022429     -0.084403      0.143824
Ir      9.91763     11.44153      6.68073        -0.031113      0.051134     -0.038164
Ir     11.90459      6.82577      9.52983        -0.068139     -0.257215      0.029591
Ir      7.40186      7.65866     11.95912         0.206822      0.133160      0.207043
Ir      7.67440     12.17838     10.61643         0.121535     -0.117504      0.103381
Ir     11.02032      9.34875     14.50099        -0.008158      0.098878     -0.020967
Ir      7.59476     12.03044     13.19770        -0.095454      0.294316     -0.054430
Ir      6.51429     10.15407      9.35666        -0.022551      0.192440     -0.173121
Ir      8.65466      9.69352     13.30160         0.049763     -0.316731     -0.064483
Ir      6.36418     10.00133     11.72510        -0.028221      0.256899      0.138733
Ir      9.40608      7.24216     13.28621        -0.243262      0.118746     -0.204515
Ir      9.87884     11.60351     14.51233        -0.030553     -0.052104      0.152063
Ir      8.64689      9.60474     10.65331         0.155684      0.211858     -0.044615
