152
# total energy = -1110.35703522 eVH     10.35389      5.87395      7.64558        -0.340233     -0.165149      1.024240
H     10.62451     15.10445      7.64558         0.385638      0.091370      0.944644
H     10.62451      5.87395     13.33282        -0.302253     -0.726083     -1.423387
H     10.35389     15.10445     13.33282        -0.643335      0.369623     -0.319448
H      7.64558     10.35389      5.87395         0.545778     -0.544090     -0.080964
H      7.64558     10.62451     15.10445         0.352153     -0.242851      0.038318
H     13.33282     10.62451      5.87395        -0.516034      0.604806     -0.011791
H     13.33282     10.35389     15.10445        -0.533702      0.418002      0.163450
H      5.87395      7.64558     10.35389         0.139027      0.487325      0.034181
H     15.10445      7.64558     10.62451         0.429689      0.828450      0.247549
H      5.87395     13.33282     10.62451        -0.231527     -0.437164      0.365095
H     15.10445     13.33282     10.35389         0.031391     -0.312084     -0.392186
H      5.87395     10.35389      7.64558        -0.071874     -0.348213      1.448863
H     15.10445     10.62451      7.64558         0.197039      0.394892      1.243834
H      5.87395     10.62451     13.33282        -0.137936     -0.333339     -1.115738
H     15.10445     10.35389     13.33282         0.532658      0.877532     -1.516175
H     10.35389      7.64558      5.87395        -0.527721      0.494860     -0.200984
H     10.62451      7.64558     15.10445        -0.134168      0.559204      0.203644
H     10.62451     13.33282      5.87395         0.911921     -1.411512     -0.333304
H     10.35389     13.33282     15.10445         0.293111     -0.543885     -0.069076
H      7.64558      5.87395     10.35389         0.728141      0.173282     -0.138551
H      7.64558     15.10445     10.62451         1.969429      0.827356      0.182361
H     13.33282      5.87395     10.62451        -2.691058     -1.005398     -0.407256
H     13.33282     15.10445     10.35389        -0.868176     -0.040236     -0.254336
H     12.45634     12.45634     19.01126         0.271837      0.257878     -0.227567
H     19.01126     19.01126     19.01126        -0.266698     -0.254466     -0.237973
H     19.01126     12.45634     12.45634        -0.282672      0.281287      0.186963
H     12.45634     19.01126     12.45634         0.256162     -0.251940      0.235796
C     10.35284      5.61067      6.59456         0.102639     -0.497265     -1.261646
C     10.62556     15.36773      6.59456         0.163494      0.770578     -0.861426
C     10.62556      5.61067     14.38384         0.168849     -0.323180      1.828001
C     10.35284     15.36773     14.38384         0.124133      0.402202      1.813247
C      6.59456     10.35284      5.61067        -1.116223     -0.111571     -0.844652
C      6.59456     10.62556     15.36773        -0.672873     -0.108773      0.724819
C     14.38384     10.62556      5.61067         0.890360     -0.116169     -0.997171
C     14.38384     10.35284     15.36773         1.207177      0.164233      1.104131
C      5.61067      6.59456     10.35284        -0.694439     -0.789478     -0.159214
C     15.36773      6.59456     10.62556         1.939507     -0.181934     -0.175205
C      5.61067     14.38384     10.62556        -1.572853     -0.004677     -0.109226
C     15.36773     14.38384     10.35284         0.486297      0.046085      0.034063
C      5.61067     10.35284      6.59456        -0.270363      0.209666     -1.371642
C     15.36773     10.62556      6.59456         0.270952     -0.188294     -0.997430
C      5.61067     10.62556     14.38384        -0.283472      0.372494      1.409165
C     15.36773     10.35284     14.38384         0.075070     -0.429775      1.904172
C     10.35284      6.59456      5.61067        -0.205023     -0.935627     -0.697691
C     10.62556      6.59456     15.36773        -0.094578     -0.823428      1.043377
C     10.62556     14.38384      5.61067        -0.482436      2.058743     -0.783138
C     10.35284     14.38384     15.36773        -0.298882      1.487221      0.463033
C      6.59456      5.61067     10.35284        -0.959725     -0.411528      0.075621
C      6.59456     15.36773     10.62556        -1.353234      0.335888     -0.336380
C     14.38384      5.61067     10.62556         1.305059     -1.107103      0.140779
C     14.38384     15.36773     10.35284         0.396832      0.316285      0.054551
C     10.40319      3.19606      7.29314         0.003596      0.312506     -0.096540
C     10.35913      4.25547      6.23373         0.136410     -0.500939      0.033650
C      0.08601      7.29314      7.29314        -0.054398     -0.311198     -0.432800
C      0.13007      6.23373      6.23373        -0.127858      0.728854      0.048231
C      0.08601      3.19606      3.19606        -0.110886      1.623983      0.174551
C      0.13007      4.25547      4.25547        -0.088745     -0.411452     -1.255439
C     10.40319      7.29314      3.19606         0.017118     -0.421494      0.132051
C     10.35913      6.23373      4.25547         0.259694      0.077313     -0.481165
C      7.29314     10.40319      3.19606        -1.665261      0.004955      0.327203
C      6.23373     10.35913      4.25547         0.653138      0.078899     -0.613478
C      7.29314      0.08601      7.29314        -0.396482     -0.008486     -0.292895
C      6.23373      0.13007      6.23373         0.613526     -0.052347      0.277431
C      3.19606      0.08601      3.19606         0.662413     -0.014689      0.191015
C      4.25547      0.13007      4.25547        -0.375565     -0.058424     -0.479668
C      3.19606     10.40319      7.29314         0.384459      0.018508     -0.322228
C      4.25547     10.35913      6.23373        -0.730997      0.057560      0.378874
C      3.19606      7.29314     10.40319         0.308702     -0.221634     -0.005862
C      4.25547      6.23373     10.35913         0.056230      0.648914      0.094586
C      7.29314      7.29314      0.08601        -0.719727     -0.591363     -0.014784
C      6.23373      6.23373      0.13007         0.785427      1.155837     -0.079126
C      3.19606      3.19606      0.08601         0.804534      0.484316      0.014196
C      4.25547      4.25547      0.13007        -0.333473     -1.696780     -0.114736
C      7.29314      3.19606     10.40319        -0.334087      0.279893     -0.003214
C      6.23373      4.25547     10.35913         0.524254     -0.040940      0.228887
O     10.43466      3.58206      8.50569        -0.047017      0.180162      0.257565
O     10.54374     17.39634      8.50569         0.041096     -0.230766      0.485229
O     10.54374      3.58206     12.47271         0.086427     -0.056268     -0.044394
O     10.43466     17.39634     12.47271        -0.022993     -0.139429     -0.281804
O      8.50569     10.43466      3.58206         0.985140      0.181442      0.390864
O      8.50569     10.54374     17.39634         0.563923      0.083422     -0.226446
O     12.47271     10.54374      3.58206        -0.430838     -0.037638      0.189411
O     12.47271     10.43466     17.39634        -0.528420     -0.071104     -0.201392
O      3.58206      8.50569     10.43466         0.178001      0.443234     -0.031502
O     17.39634      8.50569     10.54374        -0.227062      0.714905      0.041305
O      3.58206     12.47271     10.54374         0.158509     -0.662104      0.023755
O     17.39634     12.47271     10.43466        -0.185261     -0.485677     -0.013668
O      3.58206     10.43466      8.50569         0.220032     -0.058882      0.400248
O     17.39634     10.54374      8.50569        -0.168627      0.036634      0.408858
O      3.58206     10.54374     12.47271         0.142540      0.020738     -0.309820
O     17.39634     10.43466     12.47271         0.066663     -0.050677     -0.089379
O     10.43466      8.50569      3.58206        -0.002606      0.276596      0.177107
O     10.54374      8.50569     17.39634         0.071309      0.441472     -0.184297
O     10.54374     12.47271      3.58206        -0.222820     -0.965565      0.347424
O     10.43466     12.47271     17.39634        -0.085317     -0.448675     -0.244555
O      8.50569      3.58206     10.43466         0.499967      0.195127     -0.013807
O      8.50569     17.39634     10.54374         0.655716     -0.191840      0.023254
O     12.47271      3.58206     10.54374        -0.733508      0.277465      0.036698
O     12.47271     17.39634     10.43466        -0.445580     -0.197924     -0.044565
O     11.90042     11.90042     19.56718        -0.344621     -0.307372      0.258330
O     19.56718     19.56718     19.56718         0.326271      0.310535      0.280942
O     19.56718     11.90042     11.90042         0.278925     -0.278862     -0.141293
O     11.90042     19.56718     11.90042        -0.307550      0.288896     -0.234128
O      9.45224      1.03696      9.45224        -0.056315      0.070453     -0.049279
O      1.03696      9.45224      9.45224         0.035138     -0.072173     -0.073983
O      1.03696      1.03696      1.03696         0.056792      0.137565      0.105790
O      9.45224      9.45224      1.03696        -0.129939     -0.088159      0.105351
Zr     10.48920      2.52580     10.48920         0.140426     -0.162130     -0.160416
Zr     10.48920     18.45260     10.48920        -0.090171      0.178356     -0.039395
Zr     10.48920     10.48920      2.52580         0.326665     -0.311067     -0.198050
Zr     10.48920     10.48920     18.45260         0.001215     -0.082763      0.211801
Zr      2.52580     10.48920     10.48920        -0.063416      0.160182     -0.049886
Zr     18.45260     10.48920     10.48920         0.134174     -0.120426     -0.246436
Ir     12.06147     12.49181     10.46449        -0.005893     -0.005178     -0.010835
Ir     11.13593      7.41717     10.33695         0.029772      0.003250      0.007251
Ir      8.78331      7.40685     11.59823         0.040270     -0.011427     -0.020570
Ir      7.48269     11.67087      7.64892         0.011825     -0.001295      0.010454
Ir     11.59592     12.09748      7.12550        -0.002908      0.012941      0.018710
Ir     13.72545      8.96744      7.57237         0.017945      0.018990     -0.014804
Ir     12.51104     13.95277      8.42201        -0.015276     -0.010550      0.001399
Ir      9.71438     11.26876      5.57195        -0.007052      0.002423      0.001698
Ir      9.08799     13.47342      7.07372        -0.004984      0.003169      0.010585
Ir      9.29367      9.66348      7.54259        -0.011083     -0.004735     -0.013002
Ir     13.24109      7.04711     11.94679         0.010110     -0.011553      0.017756
Ir     13.51751      7.01982      9.12409         0.047014      0.004360      0.002183
Ir     11.00053      7.61211     12.87586         0.026980     -0.000661     -0.029731
Ir     13.61752     11.55439      8.75920        -0.005696      0.003511     -0.005467
Ir     11.50565      9.66800      6.24154        -0.008471     -0.015307     -0.003281
Ir      7.13551      9.22014      8.95259         0.005605     -0.030060     -0.003369
Ir     14.05453     11.41269     11.66850         0.011723      0.007402     -0.005355
Ir     11.64600      9.88068      8.91381         0.013369     -0.010551     -0.018382
Ir      9.41751      9.54420     10.26183         0.003487     -0.041634      0.005217
Ir     13.84854      9.38520     10.19550         0.002848      0.009086     -0.008134
Ir     13.79805      9.14904     12.92679        -0.006710      0.000556     -0.016811
Ir     11.67659      9.76560     11.58382        -0.001275     -0.005166     -0.009790
Ir      9.91243     11.76961      8.98325         0.005670      0.034563     -0.017380
Ir      9.00422      7.44764      8.86782         0.042372     -0.008230     -0.020091
Ir     11.46821      7.60820      7.81028         0.048039     -0.020264     -0.032181
Ir      9.23564      9.52118     13.02715         0.005496     -0.022853     -0.018107
Ir      7.53542     13.93939      8.98614        -0.002210     -0.017034      0.006033
Ir     10.91971     14.14036     11.94212        -0.015731     -0.015218      0.005606
Ir     10.13195     14.18785      9.52020        -0.002816     -0.032512     -0.002162
Ir      9.80446     11.72137     11.72909        -0.007694     -0.018066     -0.005820
Ir      7.59017     11.62092     10.20814        -0.008888     -0.015464      0.007597
Ir      8.38618     13.78691     11.58465        -0.018371     -0.011195      0.001740
Ir      7.52953     11.63092     12.83127        -0.001521     -0.031400      0.001975
Ir      9.76148     11.65275     14.34559         0.001605     -0.003484      0.002775
Ir     13.51125     13.87311     12.19572        -0.008604      0.003659     -0.004395
Ir     11.99536     12.06842     13.09075         0.013480     -0.014995     -0.001538
Ir     11.56210      9.83184     14.21775         0.007815     -0.012715     -0.001050
Ir      7.12757      9.43625     11.51156         0.018015     -0.035895     -0.003234
