15
# total energy = -96.96611065 eVC      1.43271      0.00029     10.00000         0.245978      0.008994      0.000000
C      5.86659      4.23475     10.00000        -0.245978     -0.008994     -0.000000
C      6.58229     -2.96091     10.00000        -0.122022      0.230339      0.000000
C      0.71701      7.19594     10.00000         0.122022     -0.230339     -0.000000
C      6.58375      2.99431     10.00000        -0.130182     -0.225694     -0.000000
C      0.71555      1.24073     10.00000         0.130182      0.225694      0.000000
O      1.37190      2.37988     10.00000        -0.126026     -0.243566      0.000000
O      5.92740      1.85516     10.00000         0.126026      0.243566     -0.000000
O      4.55199      4.23305     10.00000         0.271668      0.014924      0.000000
O      2.74731      0.00198     10.00000        -0.271668     -0.014924      0.000000
O      1.37446      6.05693     10.00000        -0.143516      0.253254      0.000000
O      5.92484     -1.82190     10.00000         0.143516     -0.253254     -0.000000
Au      3.64965      2.11752     10.00000         0.000000      0.000000      0.000000
Au      3.64965     -2.10059     10.00000         0.000000      0.000000      0.000000
Au      0.00000      4.21811     10.00000         0.000000     -0.000000      0.000000
