152
# total energy = -1060.00821820 eVH     10.35389      5.87395      7.64558        -0.261698      0.003701      1.141522
H     10.62451     15.10445      7.64558         0.041488     -0.091346      0.924055
H     10.62451      5.87395     13.33282        -0.236629      0.088916     -0.786663
H     10.35389     15.10445     13.33282         0.096657     -0.296478     -0.897462
H      7.64558     10.35389      5.87395         0.930136     -0.111649      0.183321
H      7.64558     10.62451     15.10445         0.337371     -0.044081     -0.077421
H     13.33282     10.62451      5.87395        -0.869103      0.209632      0.202752
H     13.33282     10.35389     15.10445        -0.277349     -0.011222     -0.068623
H      5.87395      7.64558     10.35389         0.088570      0.413558     -0.017121
H     15.10445      7.64558     10.62451         0.012870      0.514474     -0.034713
H      5.87395     13.33282     10.62451        -0.017916     -0.964408      0.077062
H     15.10445     13.33282     10.35389        -0.077925     -0.320272      0.003849
H      5.87395     10.35389      7.64558         0.271286      0.118370      0.418313
H     15.10445     10.62451      7.64558        -0.126087     -0.174469      0.650044
H      5.87395     10.62451     13.33282        -0.093189      0.462982     -0.615462
H     15.10445     10.35389     13.33282         0.265152     -0.650689     -0.810806
H     10.35389      7.64558      5.87395        -0.045672      0.483440      0.331792
H     10.62451      7.64558     15.10445         0.218752      0.751710     -0.047966
H     10.62451     13.33282      5.87395         0.120298     -0.559594      0.204609
H     10.35389     13.33282     15.10445         0.045177     -0.287505     -0.133954
H      7.64558      5.87395     10.35389         0.339423      0.092052      0.013392
H      7.64558     15.10445     10.62451         0.369944     -0.112753      0.156821
H     13.33282      5.87395     10.62451        -0.317931      0.127103     -0.037250
H     13.33282     15.10445     10.35389        -0.652983     -0.133657      0.144061
H     12.45634     12.45634     19.01126         0.254835      0.270705     -0.229764
H     19.01126     19.01126     19.01126        -0.245826     -0.268620     -0.245361
H     19.01126     12.45634     12.45634        -0.251767      0.269122      0.235138
H     12.45634     19.01126     12.45634         0.290375     -0.235945      0.234048
C     10.35284      5.61067      6.59456         0.396682     -0.429064     -1.458699
C     10.62556     15.36773      6.59456        -0.160806      0.566657     -0.627233
C     10.62556      5.61067     14.38384         0.388037     -0.348745      0.845881
C     10.35284     15.36773     14.38384        -0.234336      0.223810      1.110682
C      6.59456     10.35284      5.61067        -1.375629      0.019514     -0.247598
C      6.59456     10.62556     15.36773        -0.654756      0.059548      0.383056
C     14.38384     10.62556      5.61067         1.302192     -0.171519     -0.619333
C     14.38384     10.35284     15.36773         0.378329     -0.121719      0.357459
C      5.61067      6.59456     10.35284        -0.297390     -0.617232     -0.010406
C     15.36773      6.59456     10.62556         0.418439     -1.004544      0.029375
C      5.61067     14.38384     10.62556        -0.118604      1.160142     -0.181688
C     15.36773     14.38384     10.35284         0.457662      0.647350     -0.025964
C      5.61067     10.35284      6.59456        -0.363582     -0.102271     -0.711898
C     15.36773     10.62556      6.59456         0.419725      0.120173     -0.751859
C      5.61067     10.62556     14.38384        -0.384264     -0.175976      1.229548
C     15.36773     10.35284     14.38384         0.284508      0.191219      1.514637
C     10.35284      6.59456      5.61067        -0.050448     -0.714619     -0.632485
C     10.62556      6.59456     15.36773        -0.092830     -0.830078      0.344049
C     10.62556     14.38384      5.61067        -0.454451      0.421060     -0.695854
C     10.35284     14.38384     15.36773        -0.152178      0.587504      0.410251
C      6.59456      5.61067     10.35284        -0.497620     -0.338955      0.043967
C      6.59456     15.36773     10.62556        -0.400430      0.470245      0.049467
C     14.38384      5.61067     10.62556         0.449121     -0.388307      0.005198
C     14.38384     15.36773     10.35284         1.122126      0.506011     -0.071559
C     10.40319      3.19606      7.29314         0.001746      0.637884     -0.338315
C     10.35913      4.25547      6.23373         0.002186     -0.444516      0.292700
C      0.08601      7.29314      7.29314        -0.013377     -0.355855     -0.495490
C      0.13007      6.23373      6.23373        -0.080756      0.824306      0.062323
C      0.08601      3.19606      3.19606        -0.001604      0.668815      0.270301
C      0.13007      4.25547      4.25547         0.022367     -0.270751     -0.518466
C     10.40319      7.29314      3.19606        -0.067467     -1.153638      0.550587
C     10.35913      6.23373      4.25547        -0.038660      0.375451     -0.194163
C      7.29314     10.40319      3.19606        -1.083215     -0.058199      0.184751
C      6.23373     10.35913      4.25547         0.362747      0.081434     -0.536625
C      7.29314      0.08601      7.29314        -0.410543      0.034223     -0.564729
C      6.23373      0.13007      6.23373         0.178506      0.132603      0.130806
C      3.19606      0.08601      3.19606         0.696680      0.024317      0.165385
C      4.25547      0.13007      4.25547        -0.169326     -0.052151     -0.366493
C      3.19606     10.40319      7.29314         0.386054     -0.024549     -0.867165
C      4.25547     10.35913      6.23373        -0.163954     -0.084790      0.095980
C      3.19606      7.29314     10.40319         0.598124     -0.384186      0.001056
C      4.25547      6.23373     10.35913        -0.120467      0.179763      0.000191
C      7.29314      7.29314      0.08601        -0.402174     -0.328817     -0.015376
C      6.23373      6.23373      0.13007         0.201320      0.195068     -0.056498
C      3.19606      3.19606      0.08601         0.291558      0.480375     -0.023428
C      4.25547      4.25547      0.13007        -0.399157     -0.226216     -0.029718
C      7.29314      3.19606     10.40319        -0.282145      0.588547     -0.013879
C      6.23373      4.25547     10.35913         0.002594     -0.128618      0.022334
O     10.43466      3.58206      8.50569        -0.030355      0.104439      0.331503
O     10.54374     17.39634      8.50569         0.067206     -0.134520      0.591210
O     10.54374      3.58206     12.47271         0.026824      0.108183     -0.390152
O     10.43466     17.39634     12.47271         0.088928     -0.046429     -0.364036
O      8.50569     10.43466      3.58206         0.715274     -0.060710      0.014704
O      8.50569     10.54374     17.39634         0.450854      0.054203     -0.070548
O     12.47271     10.54374      3.58206        -0.652976      0.112863      0.203972
O     12.47271     10.43466     17.39634        -0.289643     -0.004678      0.012006
O      3.58206      8.50569     10.43466         0.046058      0.460971     -0.065177
O     17.39634      8.50569     10.54374        -0.061722      0.462773      0.054893
O      3.58206     12.47271     10.54374         0.112869     -0.584280      0.003200
O     17.39634     12.47271     10.43466        -0.167609     -0.736046     -0.061756
O      3.58206     10.43466      8.50569         0.217389     -0.063670      0.779009
O     17.39634     10.54374      8.50569        -0.116973      0.077919      0.598613
O      3.58206     10.54374     12.47271         0.000559     -0.001213     -0.270961
O     17.39634     10.43466     12.47271         0.043165     -0.013372     -0.212014
O     10.43466      8.50569      3.58206        -0.105387      0.576914     -0.112997
O     10.54374      8.50569     17.39634         0.064156      0.502763     -0.101019
O     10.54374     12.47271      3.58206         0.104755     -0.622960      0.134266
O     10.43466     12.47271     17.39634        -0.061289     -0.627447     -0.238215
O      8.50569      3.58206     10.43466         0.398822      0.029813     -0.031897
O      8.50569     17.39634     10.54374         0.627808     -0.152037      0.050496
O     12.47271      3.58206     10.54374        -0.509367      0.126567      0.037289
O     12.47271     17.39634     10.43466        -0.621090     -0.140589      0.035171
O     11.90042     11.90042     19.56718        -0.274764     -0.308412      0.237247
O     19.56718     19.56718     19.56718         0.301777      0.319097      0.299398
O     19.56718     11.90042     11.90042         0.285399     -0.324602     -0.230756
O     11.90042     19.56718     11.90042        -0.318028      0.230561     -0.202091
O      9.45224      1.03696      9.45224        -0.085100      0.082921     -0.066485
O      1.03696      9.45224      9.45224         0.098674     -0.116900     -0.044335
O      1.03696      1.03696      1.03696         0.081044      0.054861      0.100551
O      9.45224      9.45224      1.03696        -0.059208     -0.130415      0.131182
Zr     10.48920      2.52580     10.48920         0.033347     -0.087476      0.064162
Zr     10.48920     18.45260     10.48920        -0.169756      0.263293     -0.343057
Zr     10.48920     10.48920      2.52580         0.123345      0.354331     -0.356404
Zr     10.48920     10.48920     18.45260        -0.079252     -0.191019      0.171415
Zr      2.52580     10.48920     10.48920        -0.251378      0.123969      0.219006
Zr     18.45260     10.48920     10.48920         0.230324     -0.111410      0.008533
Pd      9.38386     14.21431      9.39983         0.012355      0.046316     -0.032150
Pd      8.63412     13.71137     12.98652        -0.004163     -0.001756     -0.000120
Pd     12.01167     14.41506      8.76004         0.019466      0.000192     -0.013876
Pd     12.78706     12.79583     10.60710        -0.017179      0.050393      0.022048
Pd     12.17321      7.09982     12.60651        -0.027372      0.007206      0.018706
Pd     11.24846     14.79494     11.54178        -0.038707      0.036763     -0.031639
Pd     10.11911     12.45668     11.16019        -0.045931      0.033359     -0.070128
Pd     13.47347     12.13417      7.97120         0.011517      0.003314      0.010544
Pd     11.47038     11.54961      6.11988         0.010267      0.005506     -0.016866
Pd      7.83882      8.58982      7.55996         0.017921     -0.034575     -0.015405
Pd      8.74569     11.72602      6.90372        -0.014720      0.008294     -0.021223
Pd     10.31422      9.45251      8.13552         0.008309      0.014046      0.005551
Pd      8.50633     14.42507      6.88563         0.006858      0.012534     -0.036099
Pd     12.37416      9.02812      6.57423        -0.012876      0.008312      0.019510
Pd      9.73861      9.60326      5.55265         0.000464      0.000015      0.008207
Pd      6.88392      9.46668     12.19190        -0.008369     -0.003652     -0.013560
Pd     12.21275      6.67174      7.84685        -0.000858      0.018100      0.026291
Pd      5.96414     10.49420      9.74190        -0.000501     -0.026860     -0.016730
Pd      7.56480      7.09488     13.17190         0.025058      0.048419      0.076337
Ir     11.83751      9.68834     13.06058        -0.066285      0.037874      0.047414
Ir     13.59482      8.97948     11.42964        -0.006592     -0.010664     -0.025724
Ir      9.42555      8.80888     13.81159         0.006377      0.040590      0.049355
Ir     10.57782     10.91402     14.85143        -0.005237     -0.022112     -0.022874
Ir      7.31681     12.05079     11.37820        -0.028111     -0.022460     -0.039639
Ir     14.70679     10.81708     10.06142        -0.012228      0.005274      0.023046
Ir     12.20649     10.45707      9.65078         0.025575     -0.048012      0.007879
Ir      8.77858     11.04970     13.04282         0.030410     -0.039001      0.003242
Ir     10.16377      9.82831     11.25174        -0.021020      0.061763     -0.023262
Ir     13.80613     11.35135     12.37818        -0.041382      0.012639      0.048058
Ir     11.71670     12.29283     13.12279        -0.071879     -0.017748      0.015445
Ir      8.54818     11.05737      9.40663        -0.042697      0.035999      0.001860
Ir     11.59938      7.95744     10.04989         0.080804      0.056308     -0.003653
Ir      7.22180     12.96571      8.69338         0.023360      0.008083      0.017300
Ir      9.51040      6.99898      9.07624        -0.000044     -0.034204     -0.025566
Ir      8.08874      8.73263     10.11817        -0.061006      0.047982     -0.000284
Ir     10.76825     12.07765      8.55487        -0.020635      0.034075     -0.015741
Ir      9.60131      7.38681     11.62824        -0.042515      0.003854      0.085936
Ir     13.70628      8.66859      8.78536        -0.051909      0.051798      0.058603
