26
# total energy = -167.99048825 eVH      3.22524      7.04760     -0.00000        -0.032673      0.003435      0.000000
H      6.00739      2.18503     -0.00000         0.032673     -0.003435     -0.000000
H      2.18503      3.22524     -0.00000        -0.003435     -0.032673      0.000000
H      7.04760      6.00739     -0.00000         0.003435      0.032673     -0.000000
H      6.00739      7.04760     -0.00000         0.032673      0.003435     -0.000000
H      3.22524      2.18503      0.00000        -0.032673     -0.003435      0.000000
H      7.04760      3.22524     -0.00000         0.003435     -0.032673     -0.000000
H      2.18503      6.00739      0.00000        -0.003435      0.032673      0.000000
C      8.51205      1.74100     -0.00000        -0.002514     -0.008791      0.000000
C      0.72058      7.49163      0.00000         0.002514      0.008791     -0.000000
C      7.49163      8.51205      0.00000         0.008791     -0.002514     -0.000000
C      1.74100      0.72058     -0.00000        -0.008791      0.002514     -0.000000
C      0.72058      1.74100      0.00000         0.002514     -0.008791      0.000000
C      8.51205      7.49163     -0.00000        -0.002514      0.008791     -0.000000
C      1.74100      8.51205     -0.00000        -0.008791     -0.002514     -0.000000
C      7.49163      0.72058      0.00000         0.008791      0.002514      0.000000
N      8.03401      3.03551      0.00000        -0.025565      0.019519     -0.000000
N      1.19862      6.19712      0.00000         0.025565     -0.019519      0.000000
N      6.19712      8.03401     -0.00000        -0.019519     -0.025565      0.000000
N      3.03551      1.19862      0.00000         0.019519      0.025565      0.000000
N      1.19862      3.03551      0.00000         0.025565      0.019519      0.000000
N      8.03401      6.19712     -0.00000        -0.025565     -0.019519     -0.000000
N      3.03551      8.03401     -0.00000         0.019519     -0.025565     -0.000000
N      6.19712      1.19862     -0.00000        -0.019519      0.025565     -0.000000
Au      0.00000      4.61632     -0.00000        -0.000000      0.000000      0.000000
Au      4.61632     -0.00000     -0.00000        -0.000000      0.000000      0.000000
