26
# total energy = -169.64879306 eVH      0.37150      6.90933      7.50000         0.014670      0.005645     -0.000000
H      2.82188      2.06330      7.50000        -0.018948      0.007114      0.000000
H      6.19174      6.71722      7.50000         0.002933     -0.013567      0.000000
H      8.94249     -1.55448      7.50000        -0.014670     -0.005645      0.000000
H      6.49211      3.29155      7.50000         0.018948     -0.007114     -0.000000
H      3.12224     -1.36238      7.50000        -0.002933      0.013567      0.000000
C      8.50961      4.15767      7.50000         0.010670     -0.003183      0.000000
C      1.45265     -0.08431      7.50000         0.019243      0.009687      0.000000
C      8.70646     -3.71344      7.50000         0.015115     -0.016081      0.000000
C      0.80437      1.19718      7.50000        -0.010670      0.003183      0.000000
C      7.86133      5.43916      7.50000        -0.019243     -0.009687      0.000000
C      0.60752      9.06829      7.50000        -0.015115      0.016081      0.000000
C      8.20498     -2.36145      7.50000         0.003119      0.012343      0.000000
C      7.55063      2.98262      7.50000        -0.001255      0.015033      0.000000
C      2.85782     -0.31136      7.50000         0.007343     -0.018268     -0.000000
C      1.10900      7.71630      7.50000        -0.003119     -0.012343      0.000000
C      1.76335      2.37223      7.50000         0.001255     -0.015033      0.000000
C      6.45616      5.66621      7.50000        -0.007343      0.018268     -0.000000
O      6.96065     -2.06956      7.50000        -0.000877     -0.012119      0.000000
O      7.81399      1.78040      7.50000         0.003493     -0.030044      0.000000
O      3.86920      0.52074      7.50000         0.016056      0.010156      0.000000
O      2.35333      7.42441      7.50000         0.000877      0.012119      0.000000
O      1.49999      3.57445      7.50000        -0.003493      0.030044     -0.000000
O      5.44478      4.83411      7.50000        -0.016056     -0.010156     -0.000000
Au      5.62620     -0.54801      7.50000        -0.009088      0.003545     -0.000000
Au      3.68778      5.90286      7.50000         0.009088     -0.003545     -0.000000
