36
# total energy = -245.36945780 eVH      4.91449      4.31498      7.50000        -0.016037      0.028517      0.000000
H      4.91447      8.51215      7.50000        -0.014921     -0.024394      0.000000
H      1.27962      6.41354      7.50000         0.028576      0.000074      0.000000
H      6.19410      2.09857      7.50000         0.016037     -0.028517      0.000000
H      6.19412     -2.09860      7.50000         0.014921      0.024394      0.000000
H      9.82897      0.00001      7.50000        -0.028576     -0.000074      0.000000
C      6.73595     -1.16051      7.50000        -0.035743     -0.039349      0.000000
C      8.74565     -0.00005      7.50000         0.051648      0.006430      0.000000
C      6.73577      1.16024      7.50000        -0.029781      0.056725      0.000000
C      4.37264      7.57406      7.50000         0.035743      0.039349      0.000000
C      2.36294      6.41360      7.50000        -0.051648     -0.006430      0.000000
C      4.37282      5.25331      7.50000         0.029781     -0.056725      0.000000
C     -0.00001      1.38625      7.50000        -0.000259     -0.093415     -0.000000
C      9.90807      5.72041      7.50000         0.081231      0.047086      0.000000
C      1.20053     -0.69311      7.50000        -0.081035      0.046601      0.000000
C      0.00001     11.44085      7.50000         0.000259      0.093415      0.000000
C      1.20052      0.69314      7.50000        -0.081231     -0.047086      0.000000
C      9.90806     -5.72044      7.50000         0.081035     -0.046601     -0.000000
N      6.03036      0.00004      7.50000        -0.074990     -0.011957      0.000000
N      8.09343     -1.19106      7.50000         0.043083     -0.068163      0.000000
N      8.09331      1.19118      7.50000         0.042762      0.061390      0.000000
N      5.07823      6.41351      7.50000         0.074990      0.011957      0.000000
N      3.01516      7.60461      7.50000        -0.043083      0.068163      0.000000
N      3.01528      5.22237      7.50000        -0.042762     -0.061390      0.000000
O     -0.00001      2.73628      7.50000         0.000018      0.059454      0.000000
O      8.73893      5.04541      7.50000        -0.052325     -0.030358     -0.000000
O      2.36968     -1.36814      7.50000         0.051968     -0.029083     -0.000000
O      0.00001     10.09082      7.50000        -0.000018     -0.059454      0.000000
O      2.36966      1.36814      7.50000         0.052325      0.030358     -0.000000
O      8.73891     -5.04541      7.50000        -0.051968      0.029083      0.000000
Ir      4.02209      0.00024      7.50000         0.024085      0.002045      0.000000
Ir      9.09738     -2.93047      7.50000        -0.013912      0.019406      0.000000
Ir      9.09773      2.93022      7.50000        -0.009772     -0.022228      0.000000
Ir      7.08651      6.41331      7.50000        -0.024085     -0.002045      0.000000
Ir      2.01122      9.34402      7.50000         0.013912     -0.019406      0.000000
Ir      2.01086      3.48333      7.50000         0.009772      0.022228      0.000000
