152
# total energy = -1022.75511350 eVH     10.35389      5.87395      7.64558         0.469919      0.030279      0.926412
H     10.62451     15.10445      7.64558        -0.024265      0.036668      0.746717
H     10.62451      5.87395     13.33282         0.140334      0.113810     -0.601605
H     10.35389     15.10445     13.33282        -0.271553     -0.073101     -0.558837
H      7.64558     10.35389      5.87395         0.341524     -0.045559      0.193486
H      7.64558     10.62451     15.10445         0.617229     -0.178880     -0.143206
H     13.33282     10.62451      5.87395        -0.907728     -0.364835      0.149969
H     13.33282     10.35389     15.10445        -0.475116     -0.089275     -0.058143
H      5.87395      7.64558     10.35389         0.115402      1.153758     -0.125913
H     15.10445      7.64558     10.62451        -0.169818      0.398950     -0.083239
H      5.87395     13.33282     10.62451         0.142847     -0.400455     -0.070409
H     15.10445     13.33282     10.35389        -0.079337     -0.961520     -0.234722
H      5.87395     10.35389      7.64558         0.125638      0.027729      0.469245
H     15.10445     10.62451      7.64558         0.144241     -0.231569      0.764739
H      5.87395     10.62451     13.33282         0.274055     -0.028798     -0.399398
H     15.10445     10.35389     13.33282        -0.144664      0.016757     -0.624574
H     10.35389      7.64558      5.87395         0.099348      0.824817      0.119032
H     10.62451      7.64558     15.10445         0.024341      0.601258     -0.142738
H     10.62451     13.33282      5.87395         0.110271     -0.609089      0.177527
H     10.35389     13.33282     15.10445        -0.245284     -0.886824     -0.109475
H      7.64558      5.87395     10.35389         0.531333      0.028077     -0.151601
H      7.64558     15.10445     10.62451         0.914691     -0.194967      0.325860
H     13.33282      5.87395     10.62451        -0.430976      0.189141     -0.060139
H     13.33282     15.10445     10.35389        -1.012429     -0.086571      0.258321
H     12.45634     12.45634     19.01126         0.268567      0.257728     -0.223600
H     19.01126     19.01126     19.01126        -0.247687     -0.235262     -0.262152
H     19.01126     12.45634     12.45634        -0.242651      0.270384      0.238026
H     12.45634     19.01126     12.45634         0.209360     -0.284434      0.253668
C     10.35284      5.61067      6.59456        -0.127914     -0.419988     -0.472167
C     10.62556     15.36773      6.59456         0.015157      0.343250     -1.108690
C     10.62556      5.61067     14.38384        -0.020370     -0.238171      0.719498
C     10.35284     15.36773     14.38384         0.202062      0.754432      0.103549
C      6.59456     10.35284      5.61067        -0.448207     -0.044600     -0.197323
C      6.59456     10.62556     15.36773        -0.787785      0.146904      0.356650
C     14.38384     10.62556      5.61067         0.748387      0.280701     -0.351790
C     14.38384     10.35284     15.36773         0.743492     -0.126124      0.428838
C      5.61067      6.59456     10.35284        -0.424969     -0.812105      0.245422
C     15.36773      6.59456     10.62556         0.202725     -0.473724      0.043934
C      5.61067     14.38384     10.62556        -0.261470      0.380061     -0.018650
C     15.36773     14.38384     10.35284         0.383534      0.180859      0.229328
C      5.61067     10.35284      6.59456        -0.311044     -0.007062     -0.887648
C     15.36773     10.62556      6.59456         0.555642     -0.134927     -1.233627
C      5.61067     10.62556     14.38384        -0.477579      0.007638      0.958363
C     15.36773     10.35284     14.38384         0.538415     -0.175868      1.258068
C     10.35284      6.59456      5.61067        -0.032556     -0.918662     -0.680754
C     10.62556      6.59456     15.36773         0.048644     -0.724281      0.319314
C     10.62556     14.38384      5.61067         0.026328      1.292708     -0.713421
C     10.35284     14.38384     15.36773         0.085290      0.599604      0.660104
C      6.59456      5.61067     10.35284        -0.248227     -0.904324      0.128633
C      6.59456     15.36773     10.62556        -1.747340      0.497629      0.031021
C     14.38384      5.61067     10.62556         0.570742     -0.222995     -0.007465
C     14.38384     15.36773     10.35284         0.255856      0.526077     -0.230022
C     10.40319      3.19606      7.29314         0.017657      0.928524     -0.248515
C     10.35913      4.25547      6.23373        -0.049979     -0.345971      0.640452
C      0.08601      7.29314      7.29314        -0.009251     -0.231387     -0.464802
C      0.13007      6.23373      6.23373        -0.001822      0.125033      0.203351
C      0.08601      3.19606      3.19606        -0.017950      0.659305      0.172872
C      0.13007      4.25547      4.25547        -0.093073     -0.197432     -0.168823
C     10.40319      7.29314      3.19606        -0.000412     -0.683546      0.518543
C     10.35913      6.23373      4.25547         0.000106      0.535979     -0.353795
C      7.29314     10.40319      3.19606        -0.364509      0.021691      0.841808
C      6.23373     10.35913      4.25547         0.217361      0.013186     -0.149883
C      7.29314      0.08601      7.29314        -0.304398     -0.047025     -0.258761
C      6.23373      0.13007      6.23373         0.259971     -0.061221      0.282077
C      3.19606      0.08601      3.19606         0.405292     -0.053410      1.315455
C      4.25547      0.13007      4.25547        -0.127215     -0.022136     -0.450150
C      3.19606     10.40319      7.29314         0.713496      0.015908     -0.265657
C      4.25547     10.35913      6.23373        -0.136019      0.034366      0.113903
C      3.19606      7.29314     10.40319         0.588934     -1.267136      0.030968
C      4.25547      6.23373     10.35913        -0.734252      0.806472      0.039355
C      7.29314      7.29314      0.08601        -0.652449     -0.169497     -0.024384
C      6.23373      6.23373      0.13007         0.170624      0.271491     -0.012730
C      3.19606      3.19606      0.08601         0.242430      0.251342     -0.020529
C      4.25547      4.25547      0.13007        -0.050864     -0.035467      0.015177
C      7.29314      3.19606     10.40319        -0.372303      0.761005      0.020376
C      6.23373      4.25547     10.35913         0.842358     -0.172616      0.020429
O     10.43466      3.58206      8.50569        -0.051174      0.027643      0.311470
O     10.54374     17.39634      8.50569        -0.021574     -0.185731      0.604763
O     10.54374      3.58206     12.47271         0.057798      0.058867     -0.316750
O     10.43466     17.39634     12.47271        -0.025168     -0.123541     -0.574763
O      8.50569     10.43466      3.58206         0.397224     -0.018965     -0.006388
O      8.50569     10.54374     17.39634         0.467895      0.054972     -0.143836
O     12.47271     10.54374      3.58206        -0.263587      0.055169     -0.088677
O     12.47271     10.43466     17.39634        -0.851243      0.021875     -0.219312
O      3.58206      8.50569     10.43466         0.036026      0.909327      0.041231
O     17.39634      8.50569     10.54374        -0.038355      0.341207      0.078372
O      3.58206     12.47271     10.54374         0.065960     -0.421045      0.062299
O     17.39634     12.47271     10.43466        -0.166762     -0.757179      0.015196
O      3.58206     10.43466      8.50569        -0.055171     -0.064268      0.229495
O     17.39634     10.54374      8.50569        -0.135064      0.042286      0.452128
O      3.58206     10.54374     12.47271        -0.031867     -0.054923     -0.883554
O     17.39634     10.43466     12.47271        -0.193985      0.039076     -0.753855
O     10.43466      8.50569      3.58206         0.041185      0.686016      0.193705
O     10.54374      8.50569     17.39634         0.053619      0.423333     -0.077557
O     10.54374     12.47271      3.58206        -0.016198     -0.731180      0.234223
O     10.43466     12.47271     17.39634         0.051849     -0.854885     -0.278095
O      8.50569      3.58206     10.43466         0.498925      0.083974     -0.039921
O      8.50569     17.39634     10.54374         0.653622     -0.248358     -0.059447
O     12.47271      3.58206     10.54374        -0.491643      0.162635      0.040480
O     12.47271     17.39634     10.43466        -0.518632     -0.037526     -0.034710
O     11.90042     11.90042     19.56718        -0.305197     -0.312088      0.263583
O     19.56718     19.56718     19.56718         0.288636      0.272912      0.320729
O     19.56718     11.90042     11.90042         0.282289     -0.329638     -0.242877
O     11.90042     19.56718     11.90042        -0.224242      0.292942     -0.240799
O      9.45224      1.03696      9.45224        -0.073182      0.051275     -0.066115
O      1.03696      9.45224      9.45224         0.061834     -0.141752     -0.053750
O      1.03696      1.03696      1.03696         0.047266      0.030528      0.186979
O      9.45224      9.45224      1.03696        -0.037780     -0.089024      0.124259
Zr     10.48920      2.52580     10.48920        -0.005606     -0.074103     -0.024803
Zr     10.48920     18.45260     10.48920         0.050015      0.299127     -0.070840
Zr     10.48920     10.48920      2.52580        -0.101858      0.001470     -0.372351
Zr     10.48920     10.48920     18.45260        -0.136596     -0.168890      0.319906
Zr      2.52580     10.48920     10.48920        -0.335819      0.325319     -0.476527
Zr     18.45260     10.48920     10.48920         0.231923      0.039963     -0.262308
Pd      9.05240     10.27715     13.35704        -0.007435     -0.006721     -0.010661
Pd     10.60891      9.74023     11.05584        -0.008090     -0.012767     -0.050179
Pd     13.75826      8.54913     12.70632         0.001451      0.003086     -0.013220
Pd     11.00162     11.09395     15.04358         0.000094     -0.010515     -0.011623
Pd     12.85563     11.19779     13.05186         0.001921      0.000168     -0.016418
Pd     14.96413     10.91613     11.35167         0.009640      0.012002     -0.008569
Pd      6.67132      7.42010     12.33128        -0.008882      0.013896      0.005158
Pd      9.21380      7.25788     10.17619         0.010581      0.007129     -0.030480
Pd      9.26630      7.62984     12.83508         0.002211     -0.010926     -0.018291
Pd     11.69749      7.28779     11.49135         0.000938     -0.002660     -0.010141
Pd     11.34554      7.99866      8.87993         0.035940      0.000366     -0.009812
Pd      7.25086     11.83438     11.98477         0.005880      0.003138     -0.016611
Pd      8.88630     14.66528      9.33446         0.019207      0.008495      0.001095
Pd      8.42371     12.67616     14.32915        -0.001538     -0.007653      0.000592
Pd     13.42599     14.03582      8.60786         0.071843      0.035534     -0.031351
Pd     10.90600     13.28074      8.48207         0.053423      0.037586      0.032337
Pd     14.07140     11.47416      8.93186         0.008266      0.028565     -0.005254
Pd      8.62514     14.10346     12.09724        -0.000004      0.008718      0.004628
Pd     12.24463     13.76084     14.01967        -0.003608     -0.011451      0.000287
Pd     11.14930     14.42040     11.10700         0.013775      0.007303      0.035651
Pd     14.07213     13.54363     12.17676        -0.011964      0.008500     -0.006252
Pd     12.32020     12.14589     10.68440        -0.010748     -0.001086      0.004505
Pd     12.60340     12.23928      6.73784         0.041331      0.057827     -0.014261
Pd     13.59772      8.92208      7.91068         0.042364      0.012185      0.000127
Pd      6.85532      8.46271      8.87551         0.005638      0.002644     -0.005631
Pd      5.52581      9.90180     11.30641         0.006320      0.025907     -0.028909
Pd      9.09352      9.78923      8.29034         0.030344     -0.021159      0.001476
Pd      8.84917      7.26394      7.51305        -0.016094     -0.013917     -0.025817
Pd      9.50624     12.06558     10.43599         0.009531      0.011743     -0.009389
Pd     11.48872     10.68517      8.63676         0.020437      0.007955     -0.045290
Pd     11.18323      9.29690      6.44893         0.034074     -0.035388     -0.006555
Pd      9.82101     11.60213      6.35712         0.056989     -0.023685      0.017077
Ir     11.36505      9.10059     13.41867        -0.007640      0.009146     -0.037480
Ir     13.07011      9.44164     10.40400         0.004116      0.019015     -0.010655
Ir     10.54455     12.36919     12.71121        -0.001122     -0.006160      0.007124
Ir      7.09018     10.97985      9.54178         0.035736     -0.001623     -0.013416
Ir      8.33898     12.44818      8.20512         0.051299      0.015225     -0.007836
Ir      8.07927      9.31855     11.13327        -0.011727      0.000049     -0.008693
