152
# total energy = -1024.32243729 eVH     10.35389      5.87395      7.64558         0.471788      0.038890      0.744966
H     10.62451     15.10445      7.64558         0.019596     -0.189785      0.593212
H     10.62451      5.87395     13.33282         0.101414      0.159517     -0.574120
H     10.35389     15.10445     13.33282        -0.436619     -0.047401     -0.775074
H      7.64558     10.35389      5.87395         0.341146      0.012800      0.168451
H      7.64558     10.62451     15.10445         0.893386     -0.330209     -0.009121
H     13.33282     10.62451      5.87395        -0.758261     -0.056614      0.157416
H     13.33282     10.35389     15.10445        -0.876480     -0.401425      0.202047
H      5.87395      7.64558     10.35389         0.202560      0.652548     -0.156407
H     15.10445      7.64558     10.62451        -0.139340      0.394925     -0.039497
H      5.87395     13.33282     10.62451         0.161122     -0.527207     -0.115685
H     15.10445     13.33282     10.35389        -0.083806     -1.179255      0.023282
H      5.87395     10.35389      7.64558         0.133960      0.146167      0.522912
H     15.10445     10.62451      7.64558         0.005322      0.111559      1.027778
H      5.87395     10.62451     13.33282         0.101135     -0.053349     -0.421231
H     15.10445     10.35389     13.33282        -0.127352     -0.169746     -0.534332
H     10.35389      7.64558      5.87395         0.044625      0.975138      0.236634
H     10.62451      7.64558     15.10445         0.008115      0.275981     -0.173734
H     10.62451     13.33282      5.87395        -0.093038     -0.420826      0.320207
H     10.35389     13.33282     15.10445        -0.457612     -0.632850     -0.016264
H      7.64558      5.87395     10.35389         0.484650      0.113624     -0.000453
H      7.64558     15.10445     10.62451         0.896194     -0.249633     -0.075191
H     13.33282      5.87395     10.62451        -0.584538      0.129487     -0.075419
H     13.33282     15.10445     10.35389        -0.616679     -0.055449      0.229888
H     12.45634     12.45634     19.01126         0.237016      0.276739     -0.236063
H     19.01126     19.01126     19.01126        -0.251451     -0.246710     -0.242988
H     19.01126     12.45634     12.45634        -0.263612      0.267010      0.220832
H     12.45634     19.01126     12.45634         0.233585     -0.265002      0.240738
C     10.35284      5.61067      6.59456        -0.195423     -0.637469      0.070816
C     10.62556     15.36773      6.59456        -0.026993      0.379823     -0.780864
C     10.62556      5.61067     14.38384        -0.008859     -0.062014      0.693266
C     10.35284     15.36773     14.38384         0.151696      0.726658      0.191865
C      6.59456     10.35284      5.61067        -0.358662     -0.021073     -0.284638
C      6.59456     10.62556     15.36773        -1.024346      0.335554      0.347773
C     14.38384     10.62556      5.61067         0.408258      0.337456     -0.624605
C     14.38384     10.35284     15.36773         0.989100     -0.004469      0.317800
C      5.61067      6.59456     10.35284        -0.368989     -0.415343      0.329178
C     15.36773      6.59456     10.62556         0.193271     -0.514325      0.027388
C      5.61067     14.38384     10.62556        -0.194374      0.591500      0.013668
C     15.36773     14.38384     10.35284         0.349604      0.046786     -0.162094
C      5.61067     10.35284      6.59456        -0.316794     -0.072945     -0.970730
C     15.36773     10.62556      6.59456         0.807338     -0.328555     -0.964578
C      5.61067     10.62556     14.38384        -0.476684      0.016077      0.277431
C     15.36773     10.35284     14.38384         0.665482     -0.098726      1.091160
C     10.35284      6.59456      5.61067        -0.248588     -0.592214     -0.870768
C     10.62556      6.59456     15.36773         0.051939     -0.285458      0.064332
C     10.62556     14.38384      5.61067         0.095639      1.192719     -0.430733
C     10.35284     14.38384     15.36773         0.227292      0.130771      0.713070
C      6.59456      5.61067     10.35284        -0.297533     -0.735741      0.092162
C      6.59456     15.36773     10.62556        -1.200997      0.273419      0.106914
C     14.38384      5.61067     10.62556         0.955941     -0.287829      0.028821
C     14.38384     15.36773     10.35284        -0.521842      0.770126     -0.374438
C     10.40319      3.19606      7.29314        -0.017890      0.839091     -0.393759
C     10.35913      4.25547      6.23373         0.052091     -0.473173      0.564481
C      0.08601      7.29314      7.29314        -0.018376     -0.474442     -0.346866
C      0.13007      6.23373      6.23373        -0.019911      0.017972      0.097581
C      0.08601      3.19606      3.19606         0.002001      1.237072      0.191591
C      0.13007      4.25547      4.25547        -0.049964     -0.216753     -0.212830
C     10.40319      7.29314      3.19606        -0.004774     -1.029456      0.385100
C     10.35913      6.23373      4.25547         0.030510      0.467163     -0.649121
C      7.29314     10.40319      3.19606        -0.350580      0.040245      0.760964
C      6.23373     10.35913      4.25547         0.195999      0.087197     -0.104571
C      7.29314      0.08601      7.29314        -0.595443     -0.022367     -0.266192
C      6.23373      0.13007      6.23373         0.385080     -0.071681      0.466397
C      3.19606      0.08601      3.19606         0.935966     -0.009741      0.310647
C      4.25547      0.13007      4.25547        -0.109791     -0.040382     -0.509925
C      3.19606     10.40319      7.29314         0.452491     -0.006448     -0.835995
C      4.25547     10.35913      6.23373        -0.265343      0.103555      0.253754
C      3.19606      7.29314     10.40319         0.495186     -1.324502     -0.043612
C      4.25547      6.23373     10.35913        -0.430602      0.800616      0.078734
C      7.29314      7.29314      0.08601        -0.399752     -0.222851     -0.005955
C      6.23373      6.23373      0.13007         0.159004      0.145150     -0.009324
C      3.19606      3.19606      0.08601         0.248038      0.261491     -0.018871
C      4.25547      4.25547      0.13007        -0.110274     -0.052959      0.015067
C      7.29314      3.19606     10.40319        -0.368228      0.664136      0.008953
C      6.23373      4.25547     10.35913         1.113781      0.003477      0.027651
O     10.43466      3.58206      8.50569        -0.029071      0.053610      0.443831
O     10.54374     17.39634      8.50569        -0.005203     -0.091620      0.438501
O     10.54374      3.58206     12.47271         0.043474     -0.096875     -0.141355
O     10.43466     17.39634     12.47271        -0.057750     -0.051067     -0.475904
O      8.50569     10.43466      3.58206         0.309794     -0.032540     -0.037574
O      8.50569     10.54374     17.39634         0.683509      0.026510     -0.176258
O     12.47271     10.54374      3.58206        -0.750037     -0.039460      0.145037
O     12.47271     10.43466     17.39634        -0.395542     -0.026294     -0.016663
O      3.58206      8.50569     10.43466         0.145008      1.078195     -0.012398
O     17.39634      8.50569     10.54374        -0.091171      0.415444      0.061778
O      3.58206     12.47271     10.54374         0.068739     -0.407401      0.039182
O     17.39634     12.47271     10.43466        -0.162603     -0.689710     -0.001087
O      3.58206     10.43466      8.50569         0.039875     -0.072002      0.708490
O     17.39634     10.54374      8.50569        -0.069718      0.044084      0.342807
O      3.58206     10.54374     12.47271        -0.009325      0.030156     -0.282924
O     17.39634     10.43466     12.47271        -0.245911      0.012188     -0.722861
O     10.43466      8.50569      3.58206         0.113074      0.827033      0.196269
O     10.54374      8.50569     17.39634         0.036599      0.665899     -0.159958
O     10.54374     12.47271      3.58206        -0.007286     -1.015417      0.199697
O     10.43466     12.47271     17.39634        -0.028476     -0.898957     -0.201425
O      8.50569      3.58206     10.43466         0.535588      0.110558     -0.017425
O      8.50569     17.39634     10.54374         0.520761     -0.207123     -0.011994
O     12.47271      3.58206     10.54374        -0.465347      0.156706      0.056676
O     12.47271     17.39634     10.43466        -0.396788      0.031939     -0.007969
O     11.90042     11.90042     19.56718        -0.271084     -0.325728      0.257700
O     19.56718     19.56718     19.56718         0.281755      0.286703      0.286142
O     19.56718     11.90042     11.90042         0.294471     -0.303031     -0.201768
O     11.90042     19.56718     11.90042        -0.269658      0.281503     -0.247362
O      9.45224      1.03696      9.45224        -0.082890      0.050284     -0.056775
O      1.03696      9.45224      9.45224         0.035276     -0.165439     -0.116872
O      1.03696      1.03696      1.03696         0.010660      0.117226      0.208311
O      9.45224      9.45224      1.03696        -0.064247     -0.086790      0.126450
Zr     10.48920      2.52580     10.48920        -0.036357     -0.119357     -0.168434
Zr     10.48920     18.45260     10.48920         0.020148      0.227383     -0.029719
Zr     10.48920     10.48920      2.52580        -0.116428     -0.178889     -0.535045
Zr     10.48920     10.48920     18.45260        -0.040405      0.024561      0.468299
Zr      2.52580     10.48920     10.48920        -0.364427      0.297820      0.137936
Zr     18.45260     10.48920     10.48920         0.204211      0.045708     -0.230256
Pd      8.51780      9.86829     13.23182        -0.028594     -0.011884      0.045733
Pd     10.53217      9.49695     10.23697        -0.114514     -0.004165      0.051079
Pd     13.27404      8.72396     12.45903         0.010015      0.009076      0.022285
Pd     10.42702     10.67602     15.07463        -0.049370      0.026036      0.007584
Pd     12.93642     11.35259     13.49407        -0.047320     -0.002691     -0.017184
Pd     14.90457     10.68947     11.32112        -0.007062     -0.010968     -0.005343
Pd      6.84662      7.76402     12.42558        -0.047583     -0.054159      0.033769
Pd      9.21342      7.24925      9.54972         0.018967     -0.047312     -0.041086
Pd      9.52047      7.56564     12.27068         0.082353     -0.028001     -0.015923
Pd     11.74237      7.15773     10.89287        -0.020715     -0.009737      0.036697
Pd     11.61825      7.84393      8.31972        -0.022437     -0.013663     -0.051732
Pd      7.15602     11.74081     11.59617         0.008213     -0.043024     -0.057053
Pd      9.22655     14.31635      9.33043         0.010436      0.083518      0.008278
Pd      8.13287     12.38530     14.15989         0.019884     -0.004360     -0.002796
Pd     14.20180     14.22916      8.33328        -0.015763     -0.048530      0.033311
Pd     11.70506     13.34787      8.81827        -0.022120      0.002886      0.021550
Pd     14.09555     11.65246      8.97640         0.031953     -0.007320     -0.050553
Pd      8.72873     13.95400     12.11046        -0.003367      0.017019     -0.022967
Pd     12.19626     13.93161     13.96664         0.024659      0.014065     -0.016860
Pd     11.37074     14.10987     11.34818         0.043981     -0.027881     -0.006028
Pd     14.00621     13.37602     12.08495         0.012269      0.012226      0.005733
Pd     12.28598     11.56699     10.89022         0.034671      0.016513      0.047103
Pd     12.94517     12.63348      6.60229        -0.001910     -0.023063      0.000651
Pd     13.94558      8.84722      7.58020        -0.014884      0.018458     -0.017410
Pd      6.97103      8.48284      8.46537         0.002534     -0.008015      0.005390
Pd      5.55304     10.04691     10.16449         0.045546      0.005571     -0.050161
Pd      9.39085      9.47941      7.52181        -0.048682     -0.023054      0.027210
Pd      8.49532      6.99196      6.95598         0.006801      0.009174     -0.030931
Pd      9.65376     11.94751     10.56792        -0.020140     -0.052840      0.013502
Pd     11.77589     10.64306      8.07886         0.076364      0.004075     -0.033710
Pd     11.75384      8.95947      5.89647        -0.003033      0.001473     -0.005981
Pd     10.52871     11.33829      5.77529         0.017974      0.039262     -0.023776
Ir     10.99555      9.70552     12.72638        -0.111497     -0.007635     -0.033556
Ir     13.16908      9.29471      9.95542         0.065570      0.008082      0.079569
Ir     10.48997     12.15616     12.93233         0.075759      0.018992      0.032829
Ir      7.72346     11.02609      9.08509        -0.098728     -0.104392      0.159099
Ir      9.55334     12.09213      8.01189         0.037713      0.002864     -0.136154
Ir      8.04505      9.27099     10.78597         0.037317      0.071531     -0.186131
