26
# total energy = -177.59031074 eVH      0.06135      6.30216      7.50000        -0.040720     -0.014698     -0.000000
H      2.99655      1.79197      7.50000        -0.002491     -0.017876     -0.000000
H      5.48118      5.39580      7.50000        -0.019082      0.009076     -0.000000
H      8.41036     -2.58852      7.50000         0.040720      0.014698     -0.000000
H      5.47516      1.92167      7.50000         0.002491      0.017876     -0.000000
H      2.99053     -1.68215      7.50000         0.019082     -0.009076     -0.000000
C      7.53722      2.58822      7.50000        -0.005811      0.001729      0.000000
C      1.42783     -0.24731      7.50000         0.038953      0.011488     -0.000000
C      7.97757     -4.69736      7.50000        -0.012283      0.033202     -0.000000
C      0.93449      1.12543      7.50000         0.005811     -0.001729     -0.000000
C      7.04388      3.96096      7.50000        -0.038953     -0.011488      0.000000
C      0.49414      8.41101      7.50000         0.012283     -0.033202     -0.000000
C      7.60869     -3.32099      7.50000        -0.018373     -0.028424     -0.000000
C      6.51352      1.59111      7.50000         0.016572      0.005015      0.000000
C      2.78958     -0.60623      7.50000         0.026840     -0.010136      0.000000
C      0.86302      7.03464      7.50000         0.018373      0.028424      0.000000
C      1.95819      2.12253      7.50000        -0.016572     -0.005015      0.000000
C      5.68213      4.31988      7.50000        -0.026840      0.010136     -0.000000
O      6.41786     -2.80203      7.50000        -0.028476      0.012806     -0.000000
O      6.71225      0.30974      7.50000        -0.020257     -0.000765     -0.000000
O      3.89041      0.10357      7.50000        -0.019823     -0.004629     -0.000000
O      2.05385      6.51567      7.50000         0.028476     -0.012806     -0.000000
O      1.75946      3.40390      7.50000         0.020257      0.000765     -0.000000
O      4.58130      3.61007      7.50000         0.019823      0.004629     -0.000000
Ir      5.43133     -1.16599      7.50000         0.012092      0.008196      0.000000
Ir      3.04038      4.87963      7.50000        -0.012092     -0.008196      0.000000
