152
# total energy = -1109.89474508 eVH     10.35389      5.87395      7.64558        -0.381764     -0.489011      1.221526
H     10.62451     15.10445      7.64558         0.359944      0.072712      0.894520
H     10.62451      5.87395     13.33282        -0.128451     -1.208928     -1.683315
H     10.35389     15.10445     13.33282        -0.612578      0.478960     -0.495272
H      7.64558     10.35389      5.87395         0.487493     -0.529264      0.009757
H      7.64558     10.62451     15.10445         0.331483     -0.285254      0.065160
H     13.33282     10.62451      5.87395        -0.332376      0.313847      0.020730
H     13.33282     10.35389     15.10445        -0.451921      0.284912      0.119430
H      5.87395      7.64558     10.35389         0.055021      0.371363      0.033899
H     15.10445      7.64558     10.62451         0.325273      0.373177      0.139286
H      5.87395     13.33282     10.62451        -0.294819     -0.414461      0.409385
H     15.10445     13.33282     10.35389         0.052035     -0.353418     -0.416342
H      5.87395     10.35389      7.64558        -0.130263     -0.321182      1.610522
H     15.10445     10.62451      7.64558         0.094761      0.060414      0.923906
H      5.87395     10.62451     13.33282        -0.098807     -0.298492     -1.125510
H     15.10445     10.35389     13.33282         0.363413      0.549769     -1.232646
H     10.35389      7.64558      5.87395        -0.456223      0.559868     -0.341478
H     10.62451      7.64558     15.10445        -0.040330      0.742936      0.307763
H     10.62451     13.33282      5.87395         0.887514     -1.333070     -0.322496
H     10.35389     13.33282     15.10445         0.281342     -0.506109      0.001844
H      7.64558      5.87395     10.35389         0.940844      0.103358     -0.128404
H      7.64558     15.10445     10.62451         2.077544      0.796742      0.266804
H     13.33282      5.87395     10.62451        -2.364720     -0.965945      0.323653
H     13.33282     15.10445     10.35389        -0.853900     -0.046595     -0.254602
H     12.45634     12.45634     19.01126         0.269225      0.259075     -0.231830
H     19.01126     19.01126     19.01126        -0.267494     -0.251311     -0.239364
H     19.01126     12.45634     12.45634        -0.278508      0.291317      0.183658
H     12.45634     19.01126     12.45634         0.257142     -0.251345      0.238460
C     10.35284      5.61067      6.59456         0.161128     -0.371802     -1.652376
C     10.62556     15.36773      6.59456         0.159325      0.615276     -0.836873
C     10.62556      5.61067     14.38384         0.037620     -0.225564      2.124920
C     10.35284     15.36773     14.38384         0.158116      0.160427      1.851634
C      6.59456     10.35284      5.61067        -1.176221     -0.188424     -0.970216
C      6.59456     10.62556     15.36773        -0.611364     -0.139640      0.648419
C     14.38384     10.62556      5.61067         0.706644     -0.116332     -0.743289
C     14.38384     10.35284     15.36773         1.103952      0.142792      0.919419
C      5.61067      6.59456     10.35284        -0.887794     -0.679891     -0.131835
C     15.36773      6.59456     10.62556         1.894243     -0.014602      0.010571
C      5.61067     14.38384     10.62556        -1.506973      0.188032      0.018649
C     15.36773     14.38384     10.35284         0.495988      0.219980     -0.002687
C      5.61067     10.35284      6.59456        -0.347252      0.315196     -1.783188
C     15.36773     10.62556      6.59456         0.302921      0.045208     -0.915903
C      5.61067     10.62556     14.38384        -0.382597      0.237729      1.527243
C     15.36773     10.35284     14.38384         0.152371     -0.359465      1.725191
C     10.35284      6.59456      5.61067        -0.251438     -1.314732     -1.024927
C     10.62556      6.59456     15.36773        -0.059372     -1.120292      1.204451
C     10.62556     14.38384      5.61067        -0.469015      2.060304     -0.677999
C     10.35284     14.38384     15.36773        -0.249243      1.594472      0.374319
C      6.59456      5.61067     10.35284        -1.025981     -0.304330      0.066548
C      6.59456     15.36773     10.62556        -1.538870      0.273375     -0.358912
C     14.38384      5.61067     10.62556         1.370181     -0.373715     -0.146588
C     14.38384     15.36773     10.35284         0.367849      0.232265      0.065679
C     10.40319      3.19606      7.29314         0.026065      0.306633     -0.128453
C     10.35913      4.25547      6.23373         0.109401     -0.403782      0.230265
C      0.08601      7.29314      7.29314        -0.053153     -0.370306     -0.439956
C      0.13007      6.23373      6.23373        -0.146505      0.830456      0.058552
C      0.08601      3.19606      3.19606        -0.122315      1.557605      0.170593
C      0.13007      4.25547      4.25547        -0.160104     -0.417815     -1.362472
C     10.40319      7.29314      3.19606         0.036470     -0.461911      0.090836
C     10.35913      6.23373      4.25547         0.222259      0.181962     -0.387651
C      7.29314     10.40319      3.19606        -1.771470      0.022189      0.236396
C      6.23373     10.35913      4.25547         0.511390      0.042361     -0.521135
C      7.29314      0.08601      7.29314        -0.366389      0.015573     -0.261995
C      6.23373      0.13007      6.23373         0.314340      0.037179      0.360486
C      3.19606      0.08601      3.19606         0.614170      0.016072      0.313742
C      4.25547      0.13007      4.25547        -0.418191      0.033363     -0.376149
C      3.19606     10.40319      7.29314         0.383276      0.049682     -0.416254
C      4.25547     10.35913      6.23373        -0.675064      0.091592      0.426137
C      3.19606      7.29314     10.40319         0.366732     -0.339915     -0.002560
C      4.25547      6.23373     10.35913         0.003521      0.670420      0.108744
C      7.29314      7.29314      0.08601        -0.680502     -0.445675     -0.030077
C      6.23373      6.23373      0.13007         0.249107      1.303078     -0.003886
C      3.19606      3.19606      0.08601         0.777487      0.427177     -0.016013
C      4.25547      4.25547      0.13007        -0.499535     -1.402620     -0.085359
C      7.29314      3.19606     10.40319        -0.357056      0.320194      0.003663
C      6.23373      4.25547     10.35913         0.568486     -0.206620      0.234205
O     10.43466      3.58206      8.50569        -0.045720      0.189724      0.289314
O     10.54374     17.39634      8.50569         0.044009     -0.211536      0.481570
O     10.54374      3.58206     12.47271         0.097173     -0.021360     -0.077748
O     10.43466     17.39634     12.47271        -0.037172     -0.101714     -0.235827
O      8.50569     10.43466      3.58206         0.928885      0.185219      0.398800
O      8.50569     10.54374     17.39634         0.547353      0.070744     -0.208220
O     12.47271     10.54374      3.58206        -0.493868     -0.009252      0.177798
O     12.47271     10.43466     17.39634        -0.520435     -0.069878     -0.187203
O      3.58206      8.50569     10.43466         0.165020      0.516433     -0.046844
O     17.39634      8.50569     10.54374        -0.183127      0.662249      0.045962
O      3.58206     12.47271     10.54374         0.149801     -0.613457      0.028566
O     17.39634     12.47271     10.43466        -0.176184     -0.528177     -0.012274
O      3.58206     10.43466      8.50569         0.221330     -0.085939      0.443812
O     17.39634     10.54374      8.50569        -0.155648      0.031249      0.426648
O      3.58206     10.54374     12.47271         0.149963     -0.004047     -0.393042
O     17.39634     10.43466     12.47271         0.088548     -0.062655     -0.039679
O     10.43466      8.50569      3.58206        -0.006838      0.355120      0.179328
O     10.54374      8.50569     17.39634         0.075310      0.474647     -0.203887
O     10.54374     12.47271      3.58206        -0.226427     -0.922991      0.336385
O     10.43466     12.47271     17.39634        -0.077438     -0.440406     -0.235558
O      8.50569      3.58206     10.43466         0.504574      0.188588     -0.018123
O      8.50569     17.39634     10.54374         0.609219     -0.198796      0.037879
O     12.47271      3.58206     10.54374        -0.708984      0.277628      0.044236
O     12.47271     17.39634     10.43466        -0.479612     -0.183307     -0.039005
O     11.90042     11.90042     19.56718        -0.331227     -0.306303      0.262731
O     19.56718     19.56718     19.56718         0.330257      0.305809      0.287172
O     19.56718     11.90042     11.90042         0.272706     -0.295043     -0.128397
O     11.90042     19.56718     11.90042        -0.317694      0.297345     -0.239783
O      9.45224      1.03696      9.45224        -0.052510      0.069857     -0.037558
O      1.03696      9.45224      9.45224         0.040978     -0.067038     -0.068978
O      1.03696      1.03696      1.03696         0.042053      0.118364      0.123791
O      9.45224      9.45224      1.03696        -0.117470     -0.064898      0.138721
Zr     10.48920      2.52580     10.48920         0.094543     -0.146885     -0.166768
Zr     10.48920     18.45260     10.48920        -0.042973      0.163976     -0.030859
Zr     10.48920     10.48920      2.52580         0.449320     -0.289326     -0.257416
Zr     10.48920     10.48920     18.45260        -0.027115     -0.061157      0.193701
Zr      2.52580     10.48920     10.48920        -0.064391      0.126630     -0.024634
Zr     18.45260     10.48920     10.48920         0.124599     -0.114623     -0.315121
Ir     12.01290     12.42357     10.44819         0.028572      0.007249      0.068918
Ir     10.76981      7.35519     10.42106         0.151194     -0.006745      0.009908
Ir      8.44907      7.47349     11.68209         0.038988     -0.003362     -0.041150
Ir      7.33562     11.77466      7.71072         0.123217     -0.000794     -0.035606
Ir     11.47688     12.06712      7.14561         0.002163      0.070930     -0.016792
Ir     13.34643      8.80377      7.59315         0.571737      0.256705     -0.098217
Ir     12.46322     13.89772      8.43079         0.080382      0.009211     -0.019295
Ir      9.57465     11.30409      5.57601        -0.011351      0.041224      0.068853
Ir      9.05069     13.47925      7.08117        -0.001270      0.071104      0.016533
Ir      9.08045      9.70507      7.60467         0.048016      0.030529     -0.043578
Ir     12.98120      7.13295     11.90746         0.031444     -0.112778      0.025615
Ir     13.11610      6.91084      9.17458         0.085998      0.143090     -0.238782
Ir     10.70899      7.58032     12.94026         0.075112      0.002460     -0.010335
Ir     13.49971     11.43620      8.70139         0.112929     -0.007220     -0.028564
Ir     11.28974      9.67392      6.27198         0.054757     -0.171798      0.025869
Ir      6.84021      9.40562      9.06915         0.111269     -0.070846     -0.046056
Ir     14.11898     11.39430     11.47577        -0.090994     -0.024137      0.025490
Ir     11.42683      9.88905      8.96824         0.117764     -0.081360     -0.066631
Ir      9.16200      9.58453     10.29685         0.012810     -0.020741      0.006978
Ir     13.62998      9.29060     10.16849        -0.020716     -0.069501     -0.054978
Ir     13.62358      9.27419     12.84432         0.041754     -0.089513      0.033461
Ir     11.43015      9.66043     11.59802         0.051406      0.060607      0.015203
Ir      9.78802     11.81926      9.02259        -0.076163      0.113318     -0.029742
Ir      8.60712      7.51307      8.92951         0.134566     -0.068364     -0.050277
Ir     11.03533      7.63747      7.91311        -0.225375     -0.111917      0.070304
Ir      9.02477      9.56583     13.05170         0.055459      0.029746     -0.042388
Ir      7.56283     14.04915      9.00360        -0.005427     -0.033785     -0.004281
Ir     10.94423     14.01039     12.03840         0.048723      0.070426     -0.045907
Ir     10.14208     14.21658      9.58114         0.010167      0.003613     -0.027344
Ir      9.72721     11.71000     11.73651        -0.015173      0.000030     -0.003381
Ir      7.48719     11.75013     10.28079         0.036793     -0.030859     -0.012078
Ir      8.42111     13.86492     11.65660        -0.007943     -0.014224     -0.004338
Ir      7.49575     11.80563     12.94431        -0.003081     -0.009123     -0.052924
Ir      9.80072     11.66240     14.32566        -0.050600      0.031542     -0.010743
Ir     13.49974     13.81175     12.15320         0.037740     -0.083543     -0.010744
Ir     12.07604     11.88142     13.03980         0.011714      0.072714     -0.037317
Ir     11.43056      9.73443     14.24685         0.041094      0.040476     -0.008672
Ir      6.88341      9.61391     11.60827         0.094002     -0.016377     -0.049456
