10
# total energy = -69.73287760 eVH      2.09018      1.02031      7.50000        -0.047065     -0.022975      0.000000
H      3.19325      1.55876      7.50000         0.047065      0.022975     -0.000000
C      4.14401      2.02287      7.50000         0.025220      0.012311     -0.000000
C      1.13942      0.55620      7.50000        -0.025220     -0.012311      0.000000
N      0.09965      1.38816      7.50000         0.157971     -0.091071     -0.000000
N      5.18379      1.19091      7.50000        -0.157971      0.091071     -0.000000
N      1.15575     -0.77535      7.50000         0.025373      0.180569      0.000000
N      4.12768      3.35442      7.50000        -0.025373     -0.180569      0.000000
Ir      2.64172     -2.06111      7.50000        -0.000000     -0.000000     -0.000000
Ir      0.00000      3.35065      7.50000        -0.000000     -0.000000     -0.000000
