36
# total energy = -245.37565643 eVH      4.91435      4.31521      7.50000        -0.004882      0.009092      0.000000
H      4.91434      8.51191      7.50000        -0.004542     -0.006847      0.000000
H      1.27990      6.41354      7.50000         0.008192     -0.000082      0.000000
H      6.19424      2.09834      7.50000         0.004882     -0.009092      0.000000
H      6.19425     -2.09836      7.50000         0.004542      0.006847      0.000000
H      9.82870      0.00001      7.50000        -0.008192      0.000082      0.000000
C      6.73570     -1.16072      7.50000        -0.012008     -0.014432      0.000000
C      8.74596     -0.00002      7.50000         0.018359      0.002592      0.000000
C      6.73562      1.16059      7.50000        -0.011091      0.019905      0.000000
C      4.37289      7.57427      7.50000         0.012008      0.014432      0.000000
C      2.36264      6.41357      7.50000        -0.018359     -0.002592      0.000000
C      4.37298      5.25296      7.50000         0.011091     -0.019905      0.000000
C     -0.00001      1.38604      7.50000        -0.000289     -0.040564     -0.000000
C      9.90825      5.72052      7.50000         0.035321      0.020307     -0.000000
C      1.20035     -0.69301      7.50000        -0.035113      0.020369     -0.000000
C      0.00001     11.44106      7.50000         0.000289      0.040564     -0.000000
C      1.20034      0.69303      7.50000        -0.035321     -0.020307     -0.000000
C      9.90825     -5.72054      7.50000         0.035113     -0.020369     -0.000000
N      6.02924     -0.00005      7.50000        -0.012464     -0.003816     -0.000000
N      8.09404     -1.19208      7.50000         0.007850     -0.011096      0.000000
N      8.09392      1.19211      7.50000         0.007652      0.009781     -0.000000
N      5.07935      6.41360      7.50000         0.012464      0.003816      0.000000
N      3.01456      7.60563      7.50000        -0.007850      0.011096      0.000000
N      3.01467      5.22144      7.50000        -0.007652     -0.009781     -0.000000
O     -0.00000      2.73826      7.50000        -0.000083     -0.012122     -0.000000
O      8.73720      5.04442      7.50000         0.010306      0.005785     -0.000000
O      2.37140     -1.36913      7.50000        -0.010292      0.006345      0.000000
O      0.00000     10.08884      7.50000         0.000083      0.012122     -0.000000
O      2.37139      1.36913      7.50000        -0.010306     -0.005785     -0.000000
O      8.73719     -5.04442      7.50000         0.010292     -0.006345      0.000000
Ir      4.02163      0.00022      7.50000         0.020007      0.001267      0.000000
Ir      9.09761     -2.93084      7.50000        -0.010775      0.016212      0.000000
Ir      9.09795      2.93062      7.50000        -0.008970     -0.017938      0.000000
Ir      7.08696      6.41333      7.50000        -0.020007     -0.001267      0.000000
Ir      2.01099      9.34439      7.50000         0.010775     -0.016212      0.000000
Ir      2.01064      3.48293      7.50000         0.008970      0.017938      0.000000
