152
# total energy = -1006.00103723 eVH     10.35389      5.87395      7.64558         0.258773      0.035356      0.637517
H     10.62451     15.10445      7.64558        -0.107428     -0.141620      0.514608
H     10.62451      5.87395     13.33282         0.484931      0.121416     -0.583936
H     10.35389     15.10445     13.33282         0.077152     -0.183635     -0.554632
H      7.64558     10.35389      5.87395         0.372231      0.084448      0.164644
H      7.64558     10.62451     15.10445         0.695420      0.471979     -0.040268
H     13.33282     10.62451      5.87395        -0.532483      0.420850      0.075371
H     13.33282     10.35389     15.10445        -0.803674     -0.094341      0.009003
H      5.87395      7.64558     10.35389         0.240997      0.696339     -0.391693
H     15.10445      7.64558     10.62451        -0.095141      0.480545      0.283669
H      5.87395     13.33282     10.62451         0.159347     -0.696600     -0.156951
H     15.10445     13.33282     10.35389        -0.010119     -1.026142     -0.327153
H      5.87395     10.35389      7.64558         0.254372      0.296963      0.738550
H     15.10445     10.62451      7.64558        -0.108251      0.404676      0.760476
H      5.87395     10.62451     13.33282         0.135258      0.328253     -0.691529
H     15.10445     10.35389     13.33282        -0.053721     -0.072121     -0.688946
H     10.35389      7.64558      5.87395         0.391269      1.052403     -0.008674
H     10.62451      7.64558     15.10445         0.536080      0.536892     -0.120309
H     10.62451     13.33282      5.87395        -0.398165     -0.845254      0.187022
H     10.35389     13.33282     15.10445        -0.044868     -0.433488     -0.216726
H      7.64558      5.87395     10.35389         0.849174      0.095699     -0.290100
H      7.64558     15.10445     10.62451         0.837012     -0.196904      0.011074
H     13.33282      5.87395     10.62451        -0.804406      0.196314      0.587146
H     13.33282     15.10445     10.35389        -0.444147     -0.111240     -0.131042
H     12.45634     12.45634     19.01126         0.235352      0.270229     -0.239878
H     19.01126     19.01126     19.01126        -0.262466     -0.240623     -0.261105
H     19.01126     12.45634     12.45634        -0.266893      0.268794      0.218541
H     12.45634     19.01126     12.45634         0.232022     -0.255490      0.278675
C     10.35284      5.61067      6.59456        -0.433342     -0.734206      0.198508
C     10.62556     15.36773      6.59456         0.061964      0.368077     -0.296870
C     10.62556      5.61067     14.38384        -0.332974     -0.361872     -0.304628
C     10.35284     15.36773     14.38384        -0.009111      0.333117      0.543140
C      6.59456     10.35284      5.61067        -0.215704     -0.002572     -0.392396
C      6.59456     10.62556     15.36773        -0.262756     -0.220147      0.808489
C     14.38384     10.62556      5.61067        -0.270373     -0.400767     -0.517231
C     14.38384     10.35284     15.36773         0.977435     -0.055097      0.255139
C      5.61067      6.59456     10.35284        -0.539899      0.002314      0.170250
C     15.36773      6.59456     10.62556         0.525334      0.025164     -0.251199
C      5.61067     14.38384     10.62556        -0.339725      0.972932      0.077017
C     15.36773     14.38384     10.35284         0.317752      1.035119      0.053800
C      5.61067     10.35284      6.59456        -0.179193     -0.315245     -0.621614
C     15.36773     10.62556      6.59456         0.447131     -0.288701      0.118722
C      5.61067     10.62556     14.38384        -0.726057     -0.353745     -0.061126
C     15.36773     10.35284     14.38384         0.385980     -0.061440      1.010473
C     10.35284      6.59456      5.61067        -0.206727     -0.207498     -0.656370
C     10.62556      6.59456     15.36773        -0.267411      0.123959      0.447694
C     10.62556     14.38384      5.61067         0.205279      1.065250     -0.347719
C     10.35284     14.38384     15.36773         0.026111      0.537885      0.435639
C      6.59456      5.61067     10.35284        -0.175819     -0.642721      0.234679
C      6.59456     15.36773     10.62556        -1.022770      0.300082      0.079761
C     14.38384      5.61067     10.62556         0.493266     -0.544940     -0.365011
C     14.38384     15.36773     10.35284         0.214635      0.455450     -0.102426
C     10.40319      3.19606      7.29314         0.007929      0.693191     -0.486610
C     10.35913      4.25547      6.23373         0.085416     -0.728526     -0.016913
C      0.08601      7.29314      7.29314        -0.043974     -0.410126     -0.309391
C      0.13007      6.23373      6.23373        -0.022693      0.082711      0.568319
C      0.08601      3.19606      3.19606        -0.017457      1.250173      0.280496
C      0.13007      4.25547      4.25547         0.048976     -0.776394     -0.152499
C     10.40319      7.29314      3.19606         0.009766     -0.343331      0.353841
C     10.35913      6.23373      4.25547         0.027415      0.013409     -0.894467
C      7.29314     10.40319      3.19606        -0.357636      0.020027      0.565159
C      6.23373     10.35913      4.25547         0.208047      0.052373     -0.122494
C      7.29314      0.08601      7.29314        -0.524535     -0.064303     -0.372330
C      6.23373      0.13007      6.23373         0.680730     -0.048046      0.490209
C      3.19606      0.08601      3.19606         0.674226     -0.037040      0.565972
C      4.25547      0.13007      4.25547        -0.574093     -0.081114     -0.553961
C      3.19606     10.40319      7.29314         0.483411     -0.020013     -0.778946
C      4.25547     10.35913      6.23373        -0.494208      0.031404      0.202045
C      3.19606      7.29314     10.40319         0.285033     -1.256014      0.038744
C      4.25547      6.23373     10.35913        -0.705839      0.100965      0.153136
C      7.29314      7.29314      0.08601        -0.407152     -0.371082     -0.028100
C      6.23373      6.23373      0.13007         0.468621      0.213703     -0.020891
C      3.19606      3.19606      0.08601         0.500731      0.372453     -0.039295
C      4.25547      4.25547      0.13007        -0.150402     -0.650856     -0.034554
C      7.29314      3.19606     10.40319        -0.322278      0.422265      0.075229
C      6.23373      4.25547     10.35913         0.258292     -0.694245      0.137124
O     10.43466      3.58206      8.50569        -0.014871      0.102277      0.507388
O     10.54374     17.39634      8.50569         0.036581     -0.174684      0.482732
O     10.54374      3.58206     12.47271         0.057375     -0.083249     -0.187981
O     10.43466     17.39634     12.47271        -0.038326     -0.182779     -0.564728
O      8.50569     10.43466      3.58206         0.335114      0.003511      0.035496
O      8.50569     10.54374     17.39634         0.632449      0.033493     -0.145298
O     12.47271     10.54374      3.58206        -0.678238      0.082814      0.091825
O     12.47271     10.43466     17.39634        -0.439306      0.026944     -0.111419
O      3.58206      8.50569     10.43466         0.181679      1.032514     -0.047752
O     17.39634      8.50569     10.54374        -0.162326      0.539255      0.076432
O      3.58206     12.47271     10.54374         0.083659     -0.362760      0.048945
O     17.39634     12.47271     10.43466        -0.157559     -0.545860     -0.022735
O      3.58206     10.43466      8.50569         0.075932     -0.062118      0.593501
O     17.39634     10.54374      8.50569        -0.110766      0.065971      0.521831
O      3.58206     10.54374     12.47271         0.055523      0.051711     -0.533044
O     17.39634     10.43466     12.47271        -0.217830     -0.039894     -0.592631
O     10.43466      8.50569      3.58206        -0.039143      0.471267      0.134402
O     10.54374      8.50569     17.39634         0.048390      0.529973     -0.160887
O     10.54374     12.47271      3.58206        -0.003089     -1.005436      0.206967
O     10.43466     12.47271     17.39634         0.041974     -0.733913     -0.174587
O      8.50569      3.58206     10.43466         0.506788      0.146841     -0.053950
O      8.50569     17.39634     10.54374         0.486496     -0.197919      0.013967
O     12.47271      3.58206     10.54374        -0.641263      0.235363      0.008624
O     12.47271     17.39634     10.43466        -0.213528      0.068835     -0.056486
O     11.90042     11.90042     19.56718        -0.239707     -0.288979      0.247629
O     19.56718     19.56718     19.56718         0.310237      0.295180      0.300297
O     19.56718     11.90042     11.90042         0.290288     -0.264919     -0.233232
O     11.90042     19.56718     11.90042        -0.242397      0.290739     -0.335858
O      9.45224      1.03696      9.45224        -0.020405      0.086541     -0.072714
O      1.03696      9.45224      9.45224         0.090918     -0.091377     -0.138634
O      1.03696      1.03696      1.03696         0.089018      0.190149      0.047635
O      9.45224      9.45224      1.03696        -0.111478     -0.100579      0.031256
Zr     10.48920      2.52580     10.48920        -0.131656     -0.291058     -0.035844
Zr     10.48920     18.45260     10.48920        -0.073254      0.214529      0.093566
Zr     10.48920     10.48920      2.52580         0.059433     -0.409755     -0.250703
Zr     10.48920     10.48920     18.45260        -0.271315     -0.090304      0.324344
Zr      2.52580     10.48920     10.48920        -0.376166      0.239411      0.302337
Zr     18.45260     10.48920     10.48920         0.240296     -0.000615     -0.222964
Pd     13.60520      8.99043      9.20058        -0.003261     -0.001843     -0.005244
Pd      5.62865      9.86624     10.12839         0.001078      0.001593     -0.006475
Pd      6.77098     11.84771     11.70916         0.000527     -0.001519     -0.000279
Pd     12.05983     12.99544      7.35926        -0.005387     -0.001752      0.001175
Pd     11.87475      7.73891      7.45409        -0.000095     -0.005296     -0.003552
Pd      8.31609      6.83045      6.53084         0.000686     -0.011498     -0.009993
Pd     10.57052     11.16816      5.65484        -0.017921      0.000199     -0.000620
Pd     14.39904      8.54747      6.72887        -0.002926     -0.000554     -0.002730
Pd      9.66480     11.72999      8.14802         0.000361     -0.002513      0.005122
Pd      6.72854      6.78818     12.33982        -0.002165     -0.002042      0.002019
Pd      6.61312      8.26133      7.89194         0.015961      0.019395     -0.024927
Pd      6.52433      8.49112     14.38900        -0.000075     -0.000882      0.001856
Pd     11.48347      6.51098      9.94974        -0.002769     -0.002023      0.000014
Pd      9.46159      9.19894      7.17025        -0.004417     -0.003655      0.002152
Pd      8.97868     13.99182      9.36267        -0.000662     -0.001573      0.007101
Pd      9.43491      7.36694     11.69912        -0.004806      0.000453     -0.003636
Pd     10.63102      8.96048      9.67438        -0.001584     -0.008854     -0.007210
Pd      9.34068     11.56862     10.73584        -0.001180      0.005155      0.006317
Pd      8.86342      7.07041      9.11040        -0.003786      0.002708     -0.005066
Pd      8.55432      6.58013     14.23370        -0.000306     -0.000978     -0.000456
Pd      7.61862      9.32039     12.03155        -0.004081     -0.002047      0.005716
Pd     11.94138     10.37497      7.71019        -0.000899     -0.004437     -0.010605
Pd      7.12861     12.01524      9.06715         0.000729     -0.001641     -0.000643
Pd      8.14866      9.62465      9.47104         0.007593     -0.003361      0.010214
Pd     14.01069      6.50106      8.52467        -0.002486     -0.001351     -0.000079
Pd     12.62861      8.40775     11.56592        -0.002715     -0.001613     -0.001690
Pd      8.76057     11.57141     13.41276        -0.002960     -0.000663      0.005131
Pd     13.87043     11.91158      8.96901        -0.005255     -0.003628     -0.001749
Pd     12.93382     10.70170     13.07559        -0.002997     -0.003226     -0.002475
Pd     14.76349     10.43010     11.11994        -0.004329     -0.005058     -0.001058
Pd     12.05053     10.89719     10.53848        -0.002681      0.004211     -0.002417
Pd     11.44724     13.34965      9.92699         0.002212      0.000805      0.003304
Pd     13.59736     12.91333     11.62692        -0.000249     -0.006402     -0.000983
Pd     11.11394     12.62806     12.54459        -0.000805     -0.001528     -0.000141
Pd     10.94316     11.06629     14.81768         0.001135      0.000594      0.001264
Pd     10.49922      9.72147     12.37856        -0.005639     -0.000664     -0.000977
Pd      9.08403      9.14168     14.43459         0.000945     -0.000702      0.004595
Pd      8.79869     13.86439     12.06418        -0.003302     -0.000609      0.009406
