152
# total energy = -1060.16721001 eVH     10.35389      5.87395      7.64558        -0.308375      0.102525      1.082021
H     10.62451     15.10445      7.64558         0.098508     -0.071733      0.889437
H     10.62451      5.87395     13.33282        -0.273132      0.073648     -0.784605
H     10.35389     15.10445     13.33282         0.101005     -0.301450     -0.823639
H      7.64558     10.35389      5.87395         0.895055     -0.206421      0.206710
H      7.64558     10.62451     15.10445         0.313297     -0.026262     -0.063431
H     13.33282     10.62451      5.87395        -0.884806      0.217824      0.219351
H     13.33282     10.35389     15.10445        -0.283421     -0.030998     -0.059029
H      5.87395      7.64558     10.35389         0.092982      0.422821     -0.009478
H     15.10445      7.64558     10.62451        -0.045607      0.437734     -0.028055
H      5.87395     13.33282     10.62451        -0.015587     -0.970135      0.079007
H     15.10445     13.33282     10.35389        -0.089867     -0.329169      0.001514
H      5.87395     10.35389      7.64558         0.318100      0.061805      0.371568
H     15.10445     10.62451      7.64558        -0.118512     -0.157368      0.668321
H      5.87395     10.62451     13.33282        -0.063821      0.452063     -0.606266
H     15.10445     10.35389     13.33282         0.228473     -0.632091     -0.887732
H     10.35389      7.64558      5.87395        -0.018086      0.498881      0.344305
H     10.62451      7.64558     15.10445         0.324622      0.785550     -0.011640
H     10.62451     13.33282      5.87395         0.147987     -0.569365      0.203814
H     10.35389     13.33282     15.10445         0.034937     -0.291566     -0.164973
H      7.64558      5.87395     10.35389         0.370164      0.113960      0.062685
H      7.64558     15.10445     10.62451         0.390137     -0.128090      0.179802
H     13.33282      5.87395     10.62451        -0.307112      0.137485     -0.014714
H     13.33282     15.10445     10.35389        -0.656985     -0.110807      0.139550
H     12.45634     12.45634     19.01126         0.259495      0.272346     -0.226038
H     19.01126     19.01126     19.01126        -0.248152     -0.267170     -0.244210
H     19.01126     12.45634     12.45634        -0.248628      0.271538      0.236529
H     12.45634     19.01126     12.45634         0.290334     -0.234940      0.235355
C     10.35284      5.61067      6.59456         0.400061     -0.415796     -1.354582
C     10.62556     15.36773      6.59456        -0.175017      0.609483     -0.660086
C     10.62556      5.61067     14.38384         0.366366     -0.271826      0.782306
C     10.35284     15.36773     14.38384        -0.205200      0.227285      1.026693
C      6.59456     10.35284      5.61067        -1.393489      0.032249     -0.226477
C      6.59456     10.62556     15.36773        -0.661908      0.065144      0.356572
C     14.38384     10.62556      5.61067         1.315744     -0.186329     -0.631474
C     14.38384     10.35284     15.36773         0.319233     -0.134239      0.356618
C      5.61067      6.59456     10.35284        -0.273324     -0.671667     -0.031275
C     15.36773      6.59456     10.62556         0.410014     -0.854090      0.026891
C      5.61067     14.38384     10.62556        -0.148645      1.194199     -0.217058
C     15.36773     14.38384     10.35284         0.499804      0.707391     -0.038216
C      5.61067     10.35284      6.59456        -0.368767     -0.103197     -0.770730
C     15.36773     10.62556      6.59456         0.399178      0.108141     -0.675282
C      5.61067     10.62556     14.38384        -0.401911     -0.162751      1.220452
C     15.36773     10.35284     14.38384         0.225492      0.228477      1.410750
C     10.35284      6.59456      5.61067        -0.069064     -0.744674     -0.542919
C     10.62556      6.59456     15.36773        -0.138537     -0.976694      0.373703
C     10.62556     14.38384      5.61067        -0.495428      0.387616     -0.737855
C     10.35284     14.38384     15.36773        -0.172452      0.726360      0.490961
C      6.59456      5.61067     10.35284        -0.560691     -0.336869      0.003634
C      6.59456     15.36773     10.62556        -0.360479      0.443949      0.066049
C     14.38384      5.61067     10.62556         0.436328     -0.310836      0.007403
C     14.38384     15.36773     10.35284         1.128116      0.480405     -0.081072
C     10.40319      3.19606      7.29314        -0.008031      0.798486     -0.340336
C     10.35913      4.25547      6.23373         0.024707     -0.376783      0.293135
C      0.08601      7.29314      7.29314        -0.017731     -0.385565     -0.504473
C      0.13007      6.23373      6.23373        -0.047287      0.872971      0.093055
C      0.08601      3.19606      3.19606        -0.006475      0.697287      0.259451
C      0.13007      4.25547      4.25547         0.048090     -0.268299     -0.549477
C     10.40319      7.29314      3.19606        -0.063406     -1.112170      0.629586
C     10.35913      6.23373      4.25547        -0.048083      0.348257     -0.204577
C      7.29314     10.40319      3.19606        -1.091024     -0.054439      0.202704
C      6.23373     10.35913      4.25547         0.381096      0.102427     -0.526188
C      7.29314      0.08601      7.29314        -0.489744      0.028482     -0.433483
C      6.23373      0.13007      6.23373         0.179634      0.120572      0.118466
C      3.19606      0.08601      3.19606         0.702406      0.022467      0.169355
C      4.25547      0.13007      4.25547        -0.173607     -0.052001     -0.365037
C      3.19606     10.40319      7.29314         0.380556     -0.027294     -0.952290
C      4.25547     10.35913      6.23373        -0.129258     -0.053377      0.116441
C      3.19606      7.29314     10.40319         0.618207     -0.399104      0.002315
C      4.25547      6.23373     10.35913        -0.114045      0.178392      0.010051
C      7.29314      7.29314      0.08601        -0.429414     -0.293030     -0.015088
C      6.23373      6.23373      0.13007         0.147371      0.154543     -0.064770
C      3.19606      3.19606      0.08601         0.294451      0.493597     -0.024793
C      4.25547      4.25547      0.13007        -0.405375     -0.241855     -0.030979
C      7.29314      3.19606     10.40319        -0.283392      0.594087     -0.009415
C      6.23373      4.25547     10.35913         0.016118     -0.094655      0.015703
O     10.43466      3.58206      8.50569        -0.026142      0.069513      0.299113
O     10.54374     17.39634      8.50569         0.063664     -0.121880      0.587540
O     10.54374      3.58206     12.47271         0.029260      0.101314     -0.397848
O     10.43466     17.39634     12.47271         0.094561     -0.062197     -0.439165
O      8.50569     10.43466      3.58206         0.733184     -0.073391      0.016959
O      8.50569     10.54374     17.39634         0.547621      0.063342     -0.104123
O     12.47271     10.54374      3.58206        -0.656845      0.113845      0.210952
O     12.47271     10.43466     17.39634        -0.283786      0.003563      0.036817
O      3.58206      8.50569     10.43466         0.033382      0.443895     -0.064821
O     17.39634      8.50569     10.54374        -0.054754      0.445907      0.056490
O      3.58206     12.47271     10.54374         0.105646     -0.588757      0.003135
O     17.39634     12.47271     10.43466        -0.184302     -0.742374     -0.047725
O      3.58206     10.43466      8.50569         0.207639     -0.060333      0.804537
O     17.39634     10.54374      8.50569        -0.067803      0.070370      0.479719
O      3.58206     10.54374     12.47271        -0.004480     -0.004479     -0.261623
O     17.39634     10.43466     12.47271         0.032734     -0.009879     -0.235359
O     10.43466      8.50569      3.58206        -0.107771      0.532405     -0.100492
O     10.54374      8.50569     17.39634         0.060877      0.512972     -0.082394
O     10.54374     12.47271      3.58206         0.103041     -0.638159      0.128599
O     10.43466     12.47271     17.39634        -0.063942     -0.704328     -0.284382
O      8.50569      3.58206     10.43466         0.396344      0.022797     -0.047071
O      8.50569     17.39634     10.54374         0.639683     -0.154120      0.045686
O     12.47271      3.58206     10.54374        -0.515777      0.120926      0.028360
O     12.47271     17.39634     10.43466        -0.624203     -0.123071      0.041483
O     11.90042     11.90042     19.56718        -0.277821     -0.303186      0.222140
O     19.56718     19.56718     19.56718         0.309957      0.321779      0.297758
O     19.56718     11.90042     11.90042         0.283652     -0.324909     -0.235415
O     11.90042     19.56718     11.90042        -0.314207      0.229378     -0.201658
O      9.45224      1.03696      9.45224        -0.076275      0.090429     -0.077128
O      1.03696      9.45224      9.45224         0.104066     -0.110970     -0.060592
O      1.03696      1.03696      1.03696         0.079059      0.055058      0.098137
O      9.45224      9.45224      1.03696        -0.059129     -0.125054      0.136995
Zr     10.48920      2.52580     10.48920         0.042997     -0.097050      0.122243
Zr     10.48920     18.45260     10.48920        -0.181446      0.246254     -0.360685
Zr     10.48920     10.48920      2.52580         0.113534      0.354801     -0.344866
Zr     10.48920     10.48920     18.45260        -0.080556     -0.261270      0.236230
Zr      2.52580     10.48920     10.48920        -0.241780      0.128589      0.245831
Zr     18.45260     10.48920     10.48920         0.197090     -0.138629     -0.026506
Pd      9.36063     14.30886      9.30400         0.001392      0.032683     -0.037268
Pd      8.59568     13.64797     13.04799         0.015591     -0.000810      0.018336
Pd     12.02691     14.39976      8.74897         0.013561     -0.011832      0.017084
Pd     12.74643     12.87653     10.69612        -0.051205     -0.005344      0.047370
Pd     12.12005      7.18843     12.67522         0.005369     -0.006067     -0.007833
Pd     11.15048     14.91167     11.44676        -0.026051      0.031319     -0.023016
Pd     10.02670     12.56283     11.07561        -0.043679      0.035438     -0.028344
Pd     13.48151     12.15511      7.98672         0.007690      0.005572      0.012375
Pd     11.48178     11.54664      6.10684         0.006002      0.014018     -0.003459
Pd      7.94121      8.37102      7.52215        -0.003944     -0.034588     -0.010320
Pd      8.71716     11.75807      6.84394        -0.002954      0.002908     -0.006300
Pd     10.31586      9.45213      8.15441        -0.017446      0.002620      0.015000
Pd      8.49390     14.46501      6.78480        -0.012481      0.004425     -0.023347
Pd     12.39318      9.02535      6.57722        -0.008918      0.030799      0.037366
Pd      9.71887      9.61169      5.57492         0.004586      0.007155      0.002912
Pd      6.82352      9.45662     12.14389         0.029869      0.012755      0.002148
Pd     12.18242      6.74687      7.95570         0.016026      0.004415      0.005657
Pd      5.91232     10.48193      9.69673        -0.006262     -0.010566      0.010874
Pd      7.55010      7.23756     13.40475         0.002243     -0.010241     -0.014690
Ir     11.72840      9.77122     13.06851        -0.020536     -0.024395      0.010016
Ir     13.54837      9.05930     11.47868        -0.017000      0.006420      0.020611
Ir      9.41951      8.86727     14.01113        -0.025579     -0.016204      0.012157
Ir     10.50430     10.99953     14.91045        -0.008260     -0.060328      0.089829
Ir      7.26961     12.01507     11.34199         0.006797     -0.007181      0.015450
Ir     14.64367     10.91979     10.16345        -0.024883      0.033916      0.052820
Ir     12.16259     10.57305      9.67658        -0.014386      0.017328     -0.019269
Ir      8.75895     11.00964     12.98982         0.027723      0.047600     -0.020261
Ir     10.10396      9.91926     11.16694        -0.001727      0.015852     -0.032401
Ir     13.72283     11.41887     12.50585        -0.042303     -0.000911      0.050911
Ir     11.56283     12.34188     13.09491        -0.103022     -0.025563      0.006612
Ir      8.49575     11.09849      9.33323        -0.008839      0.006681     -0.001680
Ir     11.59395      8.02661     10.14588         0.010008     -0.003549      0.016170
Ir      7.21934     13.03493      8.65944         0.023893      0.015764      0.015597
Ir      9.54906      6.96296      9.23895         0.004910     -0.007796     -0.004894
Ir      8.05158      8.76403     10.05673        -0.004549      0.006041     -0.000881
Ir     10.71976     12.12287      8.50018         0.004197     -0.007312     -0.008815
Ir      9.51419      7.57509     11.75546         0.007584      0.005729     -0.002016
Ir     13.67085      8.80247      8.84775         0.035416     -0.005192      0.018108
