152
# total energy = -1024.19752053 eVH     10.35389      5.87395      7.64558         0.518307      0.060229      0.761404
H     10.62451     15.10445      7.64558         0.022570     -0.181770      0.565557
H     10.62451      5.87395     13.33282         0.140527      0.156774     -0.641400
H     10.35389     15.10445     13.33282        -0.386651     -0.064008     -0.726951
H      7.64558     10.35389      5.87395         0.332523     -0.004819      0.185694
H      7.64558     10.62451     15.10445         0.847655     -0.317007     -0.026385
H     13.33282     10.62451      5.87395        -0.754713      0.007552      0.174997
H     13.33282     10.35389     15.10445        -0.892648     -0.409555      0.223276
H      5.87395      7.64558     10.35389         0.217937      0.615662     -0.009697
H     15.10445      7.64558     10.62451        -0.145652      0.405779     -0.049256
H      5.87395     13.33282     10.62451         0.168325     -0.503992     -0.094363
H     15.10445     13.33282     10.35389        -0.114251     -1.113268      0.015638
H      5.87395     10.35389      7.64558         0.135895      0.120677      0.469129
H     15.10445     10.62451      7.64558         0.056921      0.149136      1.097367
H      5.87395     10.62451     13.33282         0.117605     -0.021182     -0.409295
H     15.10445     10.35389     13.33282        -0.086587     -0.158490     -0.616859
H     10.35389      7.64558      5.87395         0.083666      0.888434      0.215524
H     10.62451      7.64558     15.10445         0.016624      0.288392     -0.180511
H     10.62451     13.33282      5.87395        -0.063781     -0.532899      0.299899
H     10.35389     13.33282     15.10445        -0.454100     -0.669721     -0.041830
H      7.64558      5.87395     10.35389         0.474720      0.117282      0.061200
H      7.64558     15.10445     10.62451         0.852536     -0.267898     -0.018202
H     13.33282      5.87395     10.62451        -0.538753      0.161673     -0.076614
H     13.33282     15.10445     10.35389        -0.614353     -0.065700      0.236190
H     12.45634     12.45634     19.01126         0.240208      0.277492     -0.232240
H     19.01126     19.01126     19.01126        -0.254846     -0.242917     -0.245412
H     19.01126     12.45634     12.45634        -0.258009      0.271607      0.221271
H     12.45634     19.01126     12.45634         0.226339     -0.261875      0.246746
C     10.35284      5.61067      6.59456        -0.185514     -0.595291      0.060303
C     10.62556     15.36773      6.59456        -0.007679      0.424434     -0.759154
C     10.62556      5.61067     14.38384        -0.035018     -0.097159      0.774725
C     10.35284     15.36773     14.38384         0.166050      0.701733      0.181047
C      6.59456     10.35284      5.61067        -0.391320     -0.028765     -0.266239
C      6.59456     10.62556     15.36773        -1.012396      0.325663      0.413271
C     14.38384     10.62556      5.61067         0.415201      0.297836     -0.604891
C     14.38384     10.35284     15.36773         1.018533     -0.018463      0.387929
C      5.61067      6.59456     10.35284        -0.376328     -0.512412      0.225830
C     15.36773      6.59456     10.62556         0.186454     -0.530017      0.030734
C      5.61067     14.38384     10.62556        -0.146388      0.532764      0.003654
C     15.36773     14.38384     10.35284         0.338186     -0.008340     -0.130145
C      5.61067     10.35284      6.59456        -0.303201     -0.052277     -0.873728
C     15.36773     10.62556      6.59456         0.710536     -0.315415     -1.137509
C      5.61067     10.62556     14.38384        -0.471847     -0.006570      0.274721
C     15.36773     10.35284     14.38384         0.668811     -0.125769      1.118147
C     10.35284      6.59456      5.61067        -0.268345     -0.487580     -0.786828
C     10.62556      6.59456     15.36773         0.050667     -0.298628      0.109929
C     10.62556     14.38384      5.61067         0.148455      1.180393     -0.413545
C     10.35284     14.38384     15.36773         0.212784      0.128854      0.665860
C      6.59456      5.61067     10.35284        -0.392301     -0.729823      0.063477
C      6.59456     15.36773     10.62556        -1.221029      0.283523      0.071296
C     14.38384      5.61067     10.62556         0.819246     -0.264688      0.022402
C     14.38384     15.36773     10.35284        -0.504768      0.734788     -0.371509
C     10.40319      3.19606      7.29314        -0.015349      0.859483     -0.397805
C     10.35913      4.25547      6.23373         0.028068     -0.478061      0.589551
C      0.08601      7.29314      7.29314        -0.012772     -0.499393     -0.387961
C      0.13007      6.23373      6.23373        -0.020282      0.021751      0.100367
C      0.08601      3.19606      3.19606        -0.015064      1.124300      0.187689
C      0.13007      4.25547      4.25547        -0.058976     -0.217375     -0.247463
C     10.40319      7.29314      3.19606        -0.002087     -0.934319      0.458184
C     10.35913      6.23373      4.25547         0.026456      0.477359     -0.618918
C      7.29314     10.40319      3.19606        -0.440607      0.044635      0.805072
C      6.23373     10.35913      4.25547         0.241911      0.090562     -0.115114
C      7.29314      0.08601      7.29314        -0.513461     -0.028984     -0.253981
C      6.23373      0.13007      6.23373         0.408489     -0.064901      0.409937
C      3.19606      0.08601      3.19606         0.762201     -0.019823      0.354653
C      4.25547      0.13007      4.25547        -0.107601     -0.061643     -0.435971
C      3.19606     10.40319      7.29314         0.565216     -0.002012     -0.735347
C      4.25547     10.35913      6.23373        -0.254324      0.110589      0.241330
C      3.19606      7.29314     10.40319         0.504075     -1.371724     -0.042098
C      4.25547      6.23373     10.35913        -0.386415      0.818039      0.035702
C      7.29314      7.29314      0.08601        -0.470878     -0.230505     -0.013213
C      6.23373      6.23373      0.13007         0.170314      0.141634     -0.010446
C      3.19606      3.19606      0.08601         0.248092      0.261898     -0.021560
C      4.25547      4.25547      0.13007        -0.087074     -0.044675      0.016387
C      7.29314      3.19606     10.40319        -0.358867      0.707311      0.012283
C      6.23373      4.25547     10.35913         1.102244      0.063984      0.003966
O     10.43466      3.58206      8.50569        -0.030482      0.046064      0.445432
O     10.54374     17.39634      8.50569        -0.013645     -0.090129      0.452992
O     10.54374      3.58206     12.47271         0.052878     -0.066120     -0.164807
O     10.43466     17.39634     12.47271        -0.045212     -0.070118     -0.530003
O      8.50569     10.43466      3.58206         0.372863     -0.021106     -0.028870
O      8.50569     10.54374     17.39634         0.615438      0.030478     -0.159560
O     12.47271     10.54374      3.58206        -0.677379     -0.027495      0.157874
O     12.47271     10.43466     17.39634        -0.514710     -0.027647     -0.055810
O      3.58206      8.50569     10.43466         0.155339      1.122415     -0.001346
O     17.39634      8.50569     10.54374        -0.067261      0.394630      0.068829
O      3.58206     12.47271     10.54374         0.073712     -0.429245      0.037871
O     17.39634     12.47271     10.43466        -0.155471     -0.715287      0.011604
O      3.58206     10.43466      8.50569         0.010316     -0.073342      0.605995
O     17.39634     10.54374      8.50569        -0.087563      0.042630      0.354444
O      3.58206     10.54374     12.47271         0.021582      0.020703     -0.339907
O     17.39634     10.43466     12.47271        -0.214000      0.020205     -0.715457
O     10.43466      8.50569      3.58206         0.089154      0.815908      0.191923
O     10.54374      8.50569     17.39634         0.051421      0.667437     -0.150887
O     10.54374     12.47271      3.58206        -0.047686     -0.995070      0.238172
O     10.43466     12.47271     17.39634        -0.016877     -0.922088     -0.202900
O      8.50569      3.58206     10.43466         0.514291      0.092713     -0.021476
O      8.50569     17.39634     10.54374         0.577355     -0.224992     -0.027127
O     12.47271      3.58206     10.54374        -0.468154      0.151133      0.055297
O     12.47271     17.39634     10.43466        -0.386171      0.052534     -0.010996
O     11.90042     11.90042     19.56718        -0.272999     -0.329642      0.256778
O     19.56718     19.56718     19.56718         0.285191      0.277875      0.290088
O     19.56718     11.90042     11.90042         0.282969     -0.309221     -0.200981
O     11.90042     19.56718     11.90042        -0.269640      0.282358     -0.260490
O      9.45224      1.03696      9.45224        -0.087273      0.053732     -0.052995
O      1.03696      9.45224      9.45224         0.044136     -0.173538     -0.106793
O      1.03696      1.03696      1.03696         0.004500      0.097245      0.205934
O      9.45224      9.45224      1.03696        -0.059552     -0.082811      0.132000
Zr     10.48920      2.52580     10.48920        -0.016327     -0.102360     -0.160955
Zr     10.48920     18.45260     10.48920         0.042842      0.255506      0.008311
Zr     10.48920     10.48920      2.52580        -0.001113     -0.184272     -0.544890
Zr     10.48920     10.48920     18.45260        -0.101256      0.046352      0.475661
Zr      2.52580     10.48920     10.48920        -0.359995      0.323221      0.116974
Zr     18.45260     10.48920     10.48920         0.211822      0.037889     -0.269362
Pd      8.61635      9.90133     13.26776        -0.045418     -0.025620     -0.036026
Pd     10.53851      9.49864     10.34070         0.118116     -0.068721     -0.056736
Pd     13.44101      8.72854     12.50462         0.021286      0.015277      0.032635
Pd     10.58561     10.62990     15.12561        -0.086850      0.040845     -0.119377
Pd     12.99885     11.33033     13.47031        -0.014784     -0.015892      0.007369
Pd     14.96698     10.78265     11.28733        -0.023359     -0.066362     -0.000461
Pd      6.76721      7.92677     12.58217         0.062356      0.035182     -0.090672
Pd      9.25432      7.19570      9.62552         0.032811      0.045933     -0.048207
Pd      9.42355      7.48334     12.38101        -0.026076      0.106323     -0.024400
Pd     11.71252      7.21134     11.09171         0.077848      0.039727     -0.083585
Pd     11.65729      7.84878      8.45490        -0.012535      0.039400      0.015661
Pd      7.21462     11.71281     11.62016        -0.026526     -0.023834      0.014217
Pd      9.29197     14.44684      9.43349        -0.079628     -0.006032      0.011117
Pd      8.22078     12.39379     14.19610        -0.057465      0.021039      0.069285
Pd     14.17552     14.22034      8.33224        -0.016191     -0.034952     -0.025155
Pd     11.68399     13.41028      8.88823        -0.053843     -0.022790     -0.081095
Pd     14.05447     11.64529      8.92810         0.010695     -0.025551      0.000219
Pd      8.78264     13.90838     12.12025        -0.022042     -0.003259      0.000864
Pd     12.21465     13.87088     14.03232        -0.012847     -0.023678     -0.028537
Pd     11.43048     14.10817     11.43808         0.000039     -0.010914     -0.048952
Pd     14.07575     13.41321     12.15772         0.015321      0.098025     -0.012214
Pd     12.34359     11.64146     10.92156         0.032844     -0.055025      0.006606
Pd     12.79997     12.62995      6.63008        -0.004320     -0.029336      0.023002
Pd     13.93345      8.92323      7.65542        -0.091567     -0.018389     -0.002580
Pd      6.97340      8.42739      8.52849        -0.025022     -0.043456      0.013638
Pd      5.57938     10.00719     10.23550         0.016915      0.039077      0.037849
Pd      9.36158      9.42662      7.64049         0.044722      0.004126     -0.034256
Pd      8.48782      6.92401      7.02070         0.057541      0.027832     -0.053650
Pd      9.71000     11.93591     10.55835         0.043469      0.109639      0.147670
Pd     11.63655     10.72041      8.19265         0.159258     -0.071945     -0.042128
Pd     11.67203      9.05444      6.05682         0.026969     -0.027787     -0.080852
Pd     10.27234     11.34237      5.85365         0.111558      0.020358      0.038026
Ir     11.08059      9.55552     12.79924        -0.036508      0.129548     -0.046339
Ir     13.18426      9.34516     10.04132        -0.082427     -0.041371     -0.082386
Ir     10.53739     12.05314     12.93875        -0.010979     -0.135090     -0.033879
Ir      7.73975     10.95602      9.12905        -0.191026      0.002128      0.025169
Ir      9.40036     12.23742      8.04901         0.089086      0.039761     -0.124842
Ir      8.08477      9.22360     10.83314        -0.134573     -0.063265      0.212536
