152
# total energy = -1022.77955305 eVH     10.35389      5.87395      7.64558         0.474131      0.031632      0.920750
H     10.62451     15.10445      7.64558        -0.032142      0.041204      0.756491
H     10.62451      5.87395     13.33282         0.141731      0.114400     -0.601620
H     10.35389     15.10445     13.33282        -0.270065     -0.074356     -0.562466
H      7.64558     10.35389      5.87395         0.338065     -0.041775      0.192361
H      7.64558     10.62451     15.10445         0.616070     -0.182006     -0.143656
H     13.33282     10.62451      5.87395        -0.888574     -0.345716      0.157868
H     13.33282     10.35389     15.10445        -0.471684     -0.089706     -0.061078
H      5.87395      7.64558     10.35389         0.119606      1.143591     -0.132569
H     15.10445      7.64558     10.62451        -0.169773      0.400234     -0.084509
H      5.87395     13.33282     10.62451         0.142863     -0.402989     -0.071015
H     15.10445     13.33282     10.35389        -0.077764     -0.963498     -0.220063
H      5.87395     10.35389      7.64558         0.126985      0.032582      0.473867
H     15.10445     10.62451      7.64558         0.139403     -0.228017      0.778774
H      5.87395     10.62451     13.33282         0.273602     -0.027292     -0.396767
H     15.10445     10.35389     13.33282        -0.144544      0.014551     -0.623266
H     10.35389      7.64558      5.87395         0.082183      0.826145      0.120320
H     10.62451      7.64558     15.10445         0.025797      0.587351     -0.145502
H     10.62451     13.33282      5.87395         0.091089     -0.609122      0.178471
H     10.35389     13.33282     15.10445        -0.247827     -0.886484     -0.108082
H      7.64558      5.87395     10.35389         0.530668      0.031259     -0.146273
H      7.64558     15.10445     10.62451         0.914774     -0.201230      0.317448
H     13.33282      5.87395     10.62451        -0.432403      0.188590     -0.058863
H     13.33282     15.10445     10.35389        -1.013788     -0.091273      0.257669
H     12.45634     12.45634     19.01126         0.268151      0.257602     -0.224009
H     19.01126     19.01126     19.01126        -0.247525     -0.235144     -0.262362
H     19.01126     12.45634     12.45634        -0.242082      0.270253      0.238511
H     12.45634     19.01126     12.45634         0.210074     -0.284042      0.253212
C     10.35284      5.61067      6.59456        -0.131212     -0.421742     -0.450905
C     10.62556     15.36773      6.59456         0.017223      0.344803     -1.129171
C     10.62556      5.61067     14.38384        -0.022670     -0.231267      0.719479
C     10.35284     15.36773     14.38384         0.196995      0.761819      0.118187
C      6.59456     10.35284      5.61067        -0.435059     -0.043258     -0.190890
C      6.59456     10.62556     15.36773        -0.785101      0.147530      0.353747
C     14.38384     10.62556      5.61067         0.701209      0.281064     -0.355698
C     14.38384     10.35284     15.36773         0.739419     -0.125119      0.427536
C      5.61067      6.59456     10.35284        -0.427558     -0.794072      0.256402
C     15.36773      6.59456     10.62556         0.200621     -0.471857      0.044645
C      5.61067     14.38384     10.62556        -0.259830      0.379776     -0.020302
C     15.36773     14.38384     10.35284         0.394105      0.163729      0.215759
C      5.61067     10.35284      6.59456        -0.309828     -0.009551     -0.889604
C     15.36773     10.62556      6.59456         0.561548     -0.140015     -1.232523
C      5.61067     10.62556     14.38384        -0.472248      0.007731      0.939330
C     15.36773     10.35284     14.38384         0.534553     -0.174537      1.252370
C     10.35284      6.59456      5.61067        -0.033647     -0.915871     -0.680225
C     10.62556      6.59456     15.36773         0.047098     -0.702838      0.311194
C     10.62556     14.38384      5.61067         0.033674      1.276489     -0.704669
C     10.35284     14.38384     15.36773         0.088652      0.598802      0.664066
C      6.59456      5.61067     10.35284        -0.242443     -0.902725      0.128820
C      6.59456     15.36773     10.62556        -1.741305      0.497627      0.034499
C     14.38384      5.61067     10.62556         0.573351     -0.223031     -0.007934
C     14.38384     15.36773     10.35284         0.225381      0.538720     -0.232470
C     10.40319      3.19606      7.29314         0.017153      0.922434     -0.250153
C     10.35913      4.25547      6.23373        -0.050734     -0.353554      0.632247
C      0.08601      7.29314      7.29314        -0.008991     -0.233703     -0.468174
C      0.13007      6.23373      6.23373         0.000086      0.122467      0.206272
C      0.08601      3.19606      3.19606        -0.017178      0.650841      0.176228
C      0.13007      4.25547      4.25547        -0.091983     -0.198800     -0.168855
C     10.40319      7.29314      3.19606        -0.000523     -0.687747      0.523926
C     10.35913      6.23373      4.25547        -0.001338      0.531590     -0.366101
C      7.29314     10.40319      3.19606        -0.355508      0.022429      0.843771
C      6.23373     10.35913      4.25547         0.214568      0.014125     -0.147423
C      7.29314      0.08601      7.29314        -0.305551     -0.046707     -0.262805
C      6.23373      0.13007      6.23373         0.262219     -0.060053      0.285555
C      3.19606      0.08601      3.19606         0.416524     -0.053002      1.312599
C      4.25547      0.13007      4.25547        -0.122361     -0.024577     -0.455870
C      3.19606     10.40319      7.29314         0.710857      0.015770     -0.265173
C      4.25547     10.35913      6.23373        -0.136656      0.033886      0.111629
C      3.19606      7.29314     10.40319         0.596536     -1.266033      0.028920
C      4.25547      6.23373     10.35913        -0.729121      0.820149      0.042173
C      7.29314      7.29314      0.08601        -0.655685     -0.168668     -0.023952
C      6.23373      6.23373      0.13007         0.170649      0.271626     -0.011646
C      3.19606      3.19606      0.08601         0.241410      0.250705     -0.020364
C      4.25547      4.25547      0.13007        -0.050941     -0.035745      0.014117
C      7.29314      3.19606     10.40319        -0.372821      0.770974      0.018548
C      6.23373      4.25547     10.35913         0.856554     -0.167163      0.016567
O     10.43466      3.58206      8.50569        -0.050509      0.029132      0.314137
O     10.54374     17.39634      8.50569        -0.022643     -0.184443      0.605141
O     10.54374      3.58206     12.47271         0.056628      0.060780     -0.320693
O     10.43466     17.39634     12.47271        -0.024715     -0.124032     -0.578082
O      8.50569     10.43466      3.58206         0.392606     -0.021216     -0.008208
O      8.50569     10.54374     17.39634         0.468897      0.054460     -0.143671
O     12.47271     10.54374      3.58206        -0.270316      0.053051     -0.084663
O     12.47271     10.43466     17.39634        -0.852691      0.021536     -0.221438
O      3.58206      8.50569     10.43466         0.037447      0.911482      0.040877
O     17.39634      8.50569     10.54374        -0.038284      0.339228      0.078133
O      3.58206     12.47271     10.54374         0.065313     -0.420508      0.062939
O     17.39634     12.47271     10.43466        -0.168021     -0.763615      0.016266
O      3.58206     10.43466      8.50569        -0.055505     -0.065106      0.228440
O     17.39634     10.54374      8.50569        -0.135491      0.042269      0.454232
O      3.58206     10.54374     12.47271        -0.027180     -0.053925     -0.888129
O     17.39634     10.43466     12.47271        -0.195621      0.039707     -0.757127
O     10.43466      8.50569      3.58206         0.043109      0.685172      0.192887
O     10.54374      8.50569     17.39634         0.053749      0.427250     -0.077958
O     10.54374     12.47271      3.58206        -0.012256     -0.729060      0.230891
O     10.43466     12.47271     17.39634         0.051014     -0.854703     -0.277780
O      8.50569      3.58206     10.43466         0.497262      0.081491     -0.039489
O      8.50569     17.39634     10.54374         0.654984     -0.250216     -0.060281
O     12.47271      3.58206     10.54374        -0.489356      0.163046      0.040030
O     12.47271     17.39634     10.43466        -0.524316     -0.038783     -0.032792
O     11.90042     11.90042     19.56718        -0.304894     -0.312229      0.263675
O     19.56718     19.56718     19.56718         0.288164      0.272338      0.320760
O     19.56718     11.90042     11.90042         0.281759     -0.330092     -0.244101
O     11.90042     19.56718     11.90042        -0.225492      0.292022     -0.240688
O      9.45224      1.03696      9.45224        -0.073412      0.049798     -0.066745
O      1.03696      9.45224      9.45224         0.059708     -0.142776     -0.054787
O      1.03696      1.03696      1.03696         0.046630      0.030792      0.186638
O      9.45224      9.45224      1.03696        -0.038247     -0.090585      0.122942
Zr     10.48920      2.52580     10.48920        -0.006462     -0.073401     -0.023037
Zr     10.48920     18.45260     10.48920         0.053372      0.303025     -0.071977
Zr     10.48920     10.48920      2.52580        -0.104276      0.008597     -0.371348
Zr     10.48920     10.48920     18.45260        -0.135703     -0.164677      0.323344
Zr      2.52580     10.48920     10.48920        -0.340102      0.322736     -0.474141
Zr     18.45260     10.48920     10.48920         0.234911      0.040379     -0.260425
Pd      9.04956     10.27404     13.34750        -0.009125     -0.010047     -0.011043
Pd     10.60156      9.73966     11.03157        -0.016871     -0.011437     -0.044102
Pd     13.75744      8.55058     12.69482         0.004613      0.003446     -0.007522
Pd     11.00089     11.08891     15.03554         0.001610     -0.015023     -0.008259
Pd     12.85918     11.19859     13.04541         0.006145     -0.002320     -0.011954
Pd     14.96661     10.92357     11.34764         0.009764      0.012636     -0.007937
Pd      6.66601      7.42501     12.33513        -0.005891      0.018621      0.002371
Pd      9.21565      7.25900     10.16167         0.010731      0.011281     -0.028679
Pd      9.26730      7.62431     12.82427         0.001536     -0.008295     -0.020309
Pd     11.69532      7.29090     11.47872         0.004317     -0.006655     -0.004844
Pd     11.35590      8.00150      8.87125         0.044761     -0.008687     -0.005649
Pd      7.25520     11.83691     11.97575         0.005834      0.006396     -0.011585
Pd      8.89170     14.67076      9.33479         0.023126      0.009585      0.006649
Pd      8.42343     12.67052     14.32694        -0.005225     -0.005343      0.000478
Pd     13.46211     14.05534      8.59286         0.074435      0.032345     -0.037320
Pd     10.93317     13.30339      8.49633         0.064637      0.035783      0.033899
Pd     14.07598     11.48941      8.92864         0.007293      0.030903     -0.006440
Pd      8.62537     14.10763     12.10021         0.001606      0.001731      0.003594
Pd     12.24491     13.75765     14.02288        -0.002351     -0.010040      0.000226
Pd     11.15480     14.42701     11.12395         0.015436     -0.002345      0.038183
Pd     14.06792     13.55192     12.17571        -0.012383      0.005335     -0.006649
Pd     12.31862     12.14859     10.68132        -0.010689     -0.008105      0.007499
Pd     12.62732     12.27399      6.73100         0.031963      0.052798     -0.016245
Pd     13.61434      8.92672      7.91212         0.039046      0.010761      0.001748
Pd      6.85434      8.46534      8.86857         0.010642      0.000308     -0.007776
Pd      5.52703      9.91348     11.29472        -0.001352      0.026466     -0.032217
Pd      9.11042      9.77267      8.30051         0.028982     -0.018417     -0.008041
Pd      8.83613      7.25153      7.50117        -0.014960     -0.007100     -0.030308
Pd      9.51431     12.07541     10.43365         0.018779      0.003592      0.010266
Pd     11.50183     10.69718      8.61283         0.026209      0.002791     -0.036719
Pd     11.20388      9.27618      6.44379         0.031932     -0.027451     -0.006494
Pd      9.85305     11.58369      6.37193         0.040251     -0.016976      0.001187
Ir     11.36173      9.10517     13.39789        -0.008946      0.009509     -0.035360
Ir     13.06962      9.45518     10.39700         0.011685      0.014606     -0.009267
Ir     10.54401     12.36823     12.71253        -0.011652     -0.011568     -0.002423
Ir      7.10761     10.98142      9.53184         0.041105      0.014742     -0.029122
Ir      8.36380     12.45218      8.20159         0.044681      0.013408     -0.013833
Ir      8.07401      9.31305     11.12839         0.011155     -0.006356      0.002905
