13
# total energy = -105.61525188 eVC      1.26357      6.81293     -0.00000        -0.012768     -0.010412      0.000000
C      3.78371      6.81293      0.00000         0.012768     -0.010412     -0.000000
C      3.78371      1.41958      0.00000         0.012768      0.010412     -0.000000
C      1.26357      1.41958     -0.00000        -0.012768      0.010412      0.000000
C     -0.00000      7.52521      0.00000         0.000000     -0.028051      0.000000
C     -0.00000      0.70730      0.00000         0.000000      0.028051      0.000000
C      2.52364      7.52157      0.00000         0.000000     -0.052383      0.000000
C      2.52364      0.71094     -0.00000         0.000000      0.052383      0.000000
O      1.20207      2.72033     -0.00000        -0.003063     -0.022439      0.000000
O      3.84521      2.72033      0.00000         0.003063     -0.022439     -0.000000
O      3.84521      5.51218      0.00000         0.003063      0.022439     -0.000000
O      1.20207      5.51218     -0.00000        -0.003063      0.022439      0.000000
Ir      2.52364      4.11625      0.00000         0.000000     -0.000000      0.000000
