152
# total energy = -1006.00247097 eVH     10.35389      5.87395      7.64558         0.259043      0.034997      0.637765
H     10.62451     15.10445      7.64558        -0.107421     -0.141294      0.513159
H     10.62451      5.87395     13.33282         0.484463      0.121503     -0.583623
H     10.35389     15.10445     13.33282         0.078034     -0.183454     -0.555696
H      7.64558     10.35389      5.87395         0.372304      0.090434      0.163075
H      7.64558     10.62451     15.10445         0.696243      0.471793     -0.039846
H     13.33282     10.62451      5.87395        -0.532811      0.421432      0.075050
H     13.33282     10.35389     15.10445        -0.803795     -0.094004      0.009111
H      5.87395      7.64558     10.35389         0.240142      0.689434     -0.398933
H     15.10445      7.64558     10.62451        -0.095255      0.479972      0.283256
H      5.87395     13.33282     10.62451         0.159532     -0.696163     -0.156440
H     15.10445     13.33282     10.35389        -0.010653     -1.023810     -0.326931
H      5.87395     10.35389      7.64558         0.252931      0.314427      0.753310
H     15.10445     10.62451      7.64558        -0.107846      0.403901      0.759425
H      5.87395     10.62451     13.33282         0.134477      0.328026     -0.690933
H     15.10445     10.35389     13.33282        -0.055017     -0.071373     -0.687930
H     10.35389      7.64558      5.87395         0.393986      1.053756     -0.008869
H     10.62451      7.64558     15.10445         0.536060      0.536959     -0.120596
H     10.62451     13.33282      5.87395        -0.398499     -0.846638      0.186593
H     10.35389     13.33282     15.10445        -0.045086     -0.433588     -0.216711
H      7.64558      5.87395     10.35389         0.848735      0.096451     -0.289795
H      7.64558     15.10445     10.62451         0.837524     -0.196475      0.012435
H     13.33282      5.87395     10.62451        -0.805494      0.197081      0.586826
H     13.33282     15.10445     10.35389        -0.444066     -0.111650     -0.130380
H     12.45634     12.45634     19.01126         0.235316      0.270160     -0.239992
H     19.01126     19.01126     19.01126        -0.262480     -0.240610     -0.261089
H     19.01126     12.45634     12.45634        -0.266916      0.268821      0.218389
H     12.45634     19.01126     12.45634         0.231973     -0.255391      0.278872
C     10.35284      5.61067      6.59456        -0.434203     -0.739846      0.204364
C     10.62556     15.36773      6.59456         0.061444      0.368430     -0.295782
C     10.62556      5.61067     14.38384        -0.333825     -0.360307     -0.305790
C     10.35284     15.36773     14.38384        -0.009259      0.331555      0.543862
C      6.59456     10.35284      5.61067        -0.207020     -0.002301     -0.397982
C      6.59456     10.62556     15.36773        -0.264514     -0.220495      0.809279
C     14.38384     10.62556      5.61067        -0.272327     -0.401139     -0.516993
C     14.38384     10.35284     15.36773         0.977592     -0.054186      0.256070
C      5.61067      6.59456     10.35284        -0.540044      0.004493      0.179674
C     15.36773      6.59456     10.62556         0.524488      0.025641     -0.251274
C      5.61067     14.38384     10.62556        -0.341063      0.972181      0.076645
C     15.36773     14.38384     10.35284         0.318608      1.033874      0.054323
C      5.61067     10.35284      6.59456        -0.178404     -0.323649     -0.624680
C     15.36773     10.62556      6.59456         0.447841     -0.290026      0.118848
C      5.61067     10.62556     14.38384        -0.728551     -0.354824     -0.059047
C     15.36773     10.35284     14.38384         0.386835     -0.060925      1.008550
C     10.35284      6.59456      5.61067        -0.205282     -0.199820     -0.657214
C     10.62556      6.59456     15.36773        -0.267854      0.123044      0.447176
C     10.62556     14.38384      5.61067         0.206279      1.066332     -0.347566
C     10.35284     14.38384     15.36773         0.027360      0.537000      0.434436
C      6.59456      5.61067     10.35284        -0.177640     -0.635027      0.233192
C      6.59456     15.36773     10.62556        -1.024348      0.300998      0.079680
C     14.38384      5.61067     10.62556         0.493447     -0.543752     -0.364998
C     14.38384     15.36773     10.35284         0.214919      0.454599     -0.102549
C     10.40319      3.19606      7.29314         0.007160      0.695316     -0.488457
C     10.35913      4.25547      6.23373         0.085347     -0.730320     -0.015937
C      0.08601      7.29314      7.29314        -0.043986     -0.410363     -0.308950
C      0.13007      6.23373      6.23373        -0.022582      0.082279      0.567845
C      0.08601      3.19606      3.19606        -0.018011      1.248563      0.280072
C      0.13007      4.25547      4.25547         0.048833     -0.776473     -0.152322
C     10.40319      7.29314      3.19606         0.009261     -0.345573      0.356823
C     10.35913      6.23373      4.25547         0.027157      0.014517     -0.901195
C      7.29314     10.40319      3.19606        -0.362349      0.019472      0.565810
C      6.23373     10.35913      4.25547         0.207876      0.049660     -0.128226
C      7.29314      0.08601      7.29314        -0.525269     -0.064202     -0.372161
C      6.23373      0.13007      6.23373         0.680408     -0.047177      0.491900
C      3.19606      0.08601      3.19606         0.668771     -0.037327      0.565327
C      4.25547      0.13007      4.25547        -0.573471     -0.080699     -0.554602
C      3.19606     10.40319      7.29314         0.484084     -0.020986     -0.780452
C      4.25547     10.35913      6.23373        -0.504474      0.029014      0.202443
C      3.19606      7.29314     10.40319         0.283775     -1.252467      0.038042
C      4.25547      6.23373     10.35913        -0.700413      0.099922      0.152793
C      7.29314      7.29314      0.08601        -0.406729     -0.370974     -0.028169
C      6.23373      6.23373      0.13007         0.468455      0.213601     -0.021251
C      3.19606      3.19606      0.08601         0.502108      0.371959     -0.039178
C      4.25547      4.25547      0.13007        -0.149484     -0.651183     -0.034529
C      7.29314      3.19606     10.40319        -0.321858      0.420938      0.074975
C      6.23373      4.25547     10.35913         0.255733     -0.695470      0.136264
O     10.43466      3.58206      8.50569        -0.014429      0.101938      0.508726
O     10.54374     17.39634      8.50569         0.036546     -0.174608      0.482219
O     10.54374      3.58206     12.47271         0.057682     -0.082792     -0.188343
O     10.43466     17.39634     12.47271        -0.038299     -0.182813     -0.567265
O      8.50569     10.43466      3.58206         0.338454      0.004565      0.036472
O      8.50569     10.54374     17.39634         0.632622      0.033340     -0.145317
O     12.47271     10.54374      3.58206        -0.675257      0.082612      0.091605
O     12.47271     10.43466     17.39634        -0.439805      0.027198     -0.111657
O      3.58206      8.50569     10.43466         0.182143      1.030755     -0.048827
O     17.39634      8.50569     10.54374        -0.162609      0.539207      0.076392
O      3.58206     12.47271     10.54374         0.083261     -0.361985      0.048875
O     17.39634     12.47271     10.43466        -0.157654     -0.545671     -0.022726
O      3.58206     10.43466      8.50569         0.075913     -0.061683      0.594169
O     17.39634     10.54374      8.50569        -0.110771      0.065857      0.521521
O      3.58206     10.54374     12.47271         0.057180      0.052111     -0.534695
O     17.39634     10.43466     12.47271        -0.217028     -0.040021     -0.591532
O     10.43466      8.50569      3.58206        -0.038981      0.473528      0.134196
O     10.54374      8.50569     17.39634         0.048103      0.529774     -0.160995
O     10.54374     12.47271      3.58206        -0.003915     -1.003816      0.207237
O     10.43466     12.47271     17.39634         0.041985     -0.735206     -0.174372
O      8.50569      3.58206     10.43466         0.506370      0.146875     -0.053811
O      8.50569     17.39634     10.54374         0.485943     -0.197947      0.013839
O     12.47271      3.58206     10.54374        -0.642408      0.236001      0.008337
O     12.47271     17.39634     10.43466        -0.213100      0.068451     -0.056521
O     11.90042     11.90042     19.56718        -0.239774     -0.288872      0.247739
O     19.56718     19.56718     19.56718         0.310049      0.295138      0.300132
O     19.56718     11.90042     11.90042         0.290081     -0.264924     -0.233217
O     11.90042     19.56718     11.90042        -0.242627      0.290864     -0.336575
O      9.45224      1.03696      9.45224        -0.020610      0.086368     -0.072652
O      1.03696      9.45224      9.45224         0.090847     -0.091116     -0.138773
O      1.03696      1.03696      1.03696         0.088892      0.190205      0.047198
O      9.45224      9.45224      1.03696        -0.111889     -0.100182      0.030894
Zr     10.48920      2.52580     10.48920        -0.132176     -0.291508     -0.035820
Zr     10.48920     18.45260     10.48920        -0.072716      0.214211      0.095088
Zr     10.48920     10.48920      2.52580         0.062889     -0.411030     -0.250242
Zr     10.48920     10.48920     18.45260        -0.270374     -0.090016      0.324487
Zr      2.52580     10.48920     10.48920        -0.375732      0.238634      0.303732
Zr     18.45260     10.48920     10.48920         0.240924     -0.000218     -0.222660
Pd     13.60437      8.99175      9.19768        -0.004093     -0.001410     -0.000781
Pd      5.62916      9.86595     10.12641         0.000542      0.000368     -0.006938
Pd      6.77078     11.84655     11.70860         0.000031     -0.000271      0.000806
Pd     12.05883     12.99408      7.35842        -0.006026     -0.002545      0.000569
Pd     11.87444      7.73820      7.45239        -0.002183     -0.007054     -0.005167
Pd      8.31652      6.82710      6.52481         0.002270     -0.009883     -0.005075
Pd     10.56306     11.16790      5.65551        -0.017712     -0.000350      0.001037
Pd     14.39873      8.54707      6.72692        -0.001948      0.000027     -0.003211
Pd      9.66381     11.72961      8.15076         0.002672     -0.004449      0.004484
Pd      6.72550      6.78692     12.34161        -0.001498     -0.002750      0.001390
Pd      6.62266      8.27943      7.87549         0.012821      0.013107     -0.018775
Pd      6.52334      8.49035     14.39174         0.000305     -0.001302      0.003159
Pd     11.48217      6.50850      9.94985        -0.003206     -0.002814      0.001030
Pd      9.45724      9.19852      7.17240        -0.002992     -0.004674      0.000470
Pd      8.97861     13.99176      9.36706        -0.000873     -0.000779      0.005874
Pd      9.43122      7.36623     11.69644        -0.003503      0.000815     -0.004192
Pd     10.63265      8.95714      9.67244         0.000655     -0.006456     -0.005393
Pd      9.34075     11.57191     10.73841        -0.000830      0.004313      0.009102
Pd      8.85982      7.07149      9.10623        -0.002188     -0.000590     -0.004887
Pd      8.55419      6.58019     14.23283         0.001014      0.000160     -0.001267
Pd      7.61499      9.31867     12.03604        -0.002922     -0.000457      0.003254
Pd     11.93862     10.37389      7.70739        -0.000362     -0.003637     -0.011877
Pd      7.12860     12.01476      9.06697         0.001207     -0.002477     -0.001328
Pd      8.15133      9.62518      9.47937         0.004152     -0.004588      0.006586
Pd     14.00939      6.50181      8.52515         0.000234     -0.004345     -0.000012
Pd     12.62898      8.40804     11.56436        -0.004909     -0.000640     -0.002422
Pd      8.75934     11.57059     13.41405        -0.000365     -0.000051      0.002667
Pd     13.86782     11.90876      8.96898        -0.003841     -0.003670     -0.001602
Pd     12.93177     10.70113     13.07623        -0.004135     -0.004434     -0.004270
Pd     14.76113     10.42791     11.12106        -0.007101     -0.005030     -0.002898
Pd     12.04775     10.89654     10.53869        -0.004038      0.001907      0.000857
Pd     11.44818     13.34961      9.92637         0.001268      0.002478      0.004394
Pd     13.59695     12.91157     11.62647         0.000599     -0.007034     -0.000532
Pd     11.11311     12.62928     12.54501        -0.000528     -0.001814      0.001305
Pd     10.94215     11.06721     14.81802         0.001353     -0.001066     -0.001258
Pd     10.49687      9.71962     12.37781        -0.002700      0.001061     -0.002080
Pd      9.08388      9.14154     14.43641         0.001765     -0.000893      0.002630
Pd      8.79584     13.86548     12.06941        -0.002915     -0.000572      0.008901
