152
# total energy = -1060.55157056 eVH     10.35389      5.87395      7.64558        -0.379989      0.145885      1.124905
H     10.62451     15.10445      7.64558         0.052516     -0.097049      0.804520
H     10.62451      5.87395     13.33282        -0.294107      0.055379     -0.652395
H     10.35389     15.10445     13.33282         0.048977     -0.300865     -0.544495
H      7.64558     10.35389      5.87395         0.738529     -0.093280      0.205088
H      7.64558     10.62451     15.10445         0.197359      0.033127     -0.053300
H     13.33282     10.62451      5.87395        -0.645783     -0.107651      0.166463
H     13.33282     10.35389     15.10445        -0.305224     -0.068383     -0.075519
H      5.87395      7.64558     10.35389         0.115197      0.389732     -0.015903
H     15.10445      7.64558     10.62451        -0.110696      0.871035      0.401543
H      5.87395     13.33282     10.62451         0.098903     -0.617490      0.015994
H     15.10445     13.33282     10.35389        -0.251825     -0.461613      0.085372
H      5.87395     10.35389      7.64558         0.266334      0.098001      0.341752
H     15.10445     10.62451      7.64558        -0.174841     -0.081374      0.348870
H      5.87395     10.62451     13.33282         0.023755      0.260979     -0.752022
H     15.10445     10.35389     13.33282         0.050735     -0.265130     -0.689080
H     10.35389      7.64558      5.87395        -0.080015      0.459791      0.285354
H     10.62451      7.64558     15.10445         0.286976      0.610908     -0.108357
H     10.62451     13.33282      5.87395         0.240985     -0.674848      0.138795
H     10.35389     13.33282     15.10445         0.133732     -0.507395     -0.118761
H      7.64558      5.87395     10.35389         0.446415      0.150679      0.013768
H      7.64558     15.10445     10.62451         0.391438     -0.146186      0.253525
H     13.33282      5.87395     10.62451        -0.307832      0.097493      0.037606
H     13.33282     15.10445     10.35389        -0.567785     -0.241909      0.204527
H     12.45634     12.45634     19.01126         0.246764      0.266931     -0.235004
H     19.01126     19.01126     19.01126        -0.253478     -0.266845     -0.230608
H     19.01126     12.45634     12.45634        -0.232739      0.262073      0.249329
H     12.45634     19.01126     12.45634         0.297136     -0.213886      0.237939
C     10.35284      5.61067      6.59456         0.454207     -0.382281     -1.162077
C     10.62556     15.36773      6.59456        -0.202865      0.835546     -0.772700
C     10.62556      5.61067     14.38384         0.328295     -0.247974      0.651731
C     10.35284     15.36773     14.38384        -0.161958      0.312760      0.649098
C      6.59456     10.35284      5.61067        -0.780022     -0.084952     -0.182769
C      6.59456     10.62556     15.36773        -0.591177      0.072413      0.360130
C     14.38384     10.62556      5.61067         1.139963      0.036748     -0.523448
C     14.38384     10.35284     15.36773         0.290326     -0.082086      0.334586
C      5.61067      6.59456     10.35284        -0.350705     -0.568771      0.006780
C     15.36773      6.59456     10.62556         0.233988     -0.918186     -0.322070
C      5.61067     14.38384     10.62556        -0.206330      0.679288     -0.288943
C     15.36773     14.38384     10.35284         0.391986      0.916315     -0.092665
C      5.61067     10.35284      6.59456        -0.241135     -0.134119     -0.417268
C     15.36773     10.62556      6.59456         0.202424      0.055004     -0.327332
C      5.61067     10.62556     14.38384        -0.407598     -0.099206      1.308728
C     15.36773     10.35284     14.38384         0.250985      0.005741      0.994737
C     10.35284      6.59456      5.61067        -0.032822     -0.381280     -0.438985
C     10.62556      6.59456     15.36773         0.010600     -0.761304      0.343667
C     10.62556     14.38384      5.61067        -0.356250      0.051259     -0.772677
C     10.35284     14.38384     15.36773        -0.244075      0.713053      0.314419
C      6.59456      5.61067     10.35284        -0.502717     -0.320244      0.099381
C      6.59456     15.36773     10.62556        -0.310727      0.495538      0.051583
C     14.38384      5.61067     10.62556         0.262145     -0.433065      0.112754
C     14.38384     15.36773     10.35284         0.924549      0.301941     -0.057754
C     10.40319      3.19606      7.29314         0.008250      0.698390     -0.365075
C     10.35913      4.25547      6.23373         0.010817     -0.466026      0.329925
C      0.08601      7.29314      7.29314        -0.010204     -0.693171     -0.581785
C      0.13007      6.23373      6.23373        -0.091863      0.840727      0.112958
C      0.08601      3.19606      3.19606        -0.030065      0.336672      0.336962
C      0.13007      4.25547      4.25547         0.058281     -0.184913     -0.640322
C     10.40319      7.29314      3.19606        -0.029262     -1.187476      0.982383
C     10.35913      6.23373      4.25547         0.002360      0.376033     -0.205319
C      7.29314     10.40319      3.19606        -0.847999     -0.046019      0.340166
C      6.23373     10.35913      4.25547         0.251841      0.072540     -0.456519
C      7.29314      0.08601      7.29314        -0.903351      0.012480     -0.403187
C      6.23373      0.13007      6.23373         0.121533      0.022925      0.088781
C      3.19606      0.08601      3.19606         0.390492     -0.005263      0.296801
C      4.25547      0.13007      4.25547        -0.229160     -0.057272     -0.176160
C      3.19606     10.40319      7.29314         0.477823     -0.042313     -1.108484
C      4.25547     10.35913      6.23373        -0.207772     -0.028221      0.133635
C      3.19606      7.29314     10.40319         0.774088     -0.463055      0.018343
C      4.25547      6.23373     10.35913        -0.105448      0.162693     -0.004230
C      7.29314      7.29314      0.08601        -0.386894     -0.299676     -0.017104
C      6.23373      6.23373      0.13007         0.353356      0.119110     -0.169350
C      3.19606      3.19606      0.08601         0.329976      0.653549     -0.012463
C      4.25547      4.25547      0.13007        -0.407209     -0.279990      0.017889
C      7.29314      3.19606     10.40319        -0.230501      0.651820      0.017030
C      6.23373      4.25547     10.35913         0.044799     -0.222560      0.002924
O     10.43466      3.58206      8.50569        -0.029228      0.085336      0.314143
O     10.54374     17.39634      8.50569         0.077072     -0.025736      0.436526
O     10.54374      3.58206     12.47271         0.049408      0.198326     -0.537673
O     10.43466     17.39634     12.47271         0.042628      0.018911     -0.518759
O      8.50569     10.43466      3.58206         0.640391     -0.074701      0.087567
O      8.50569     10.54374     17.39634         0.865636      0.064209     -0.141789
O     12.47271     10.54374      3.58206        -0.352191      0.067720      0.058162
O     12.47271     10.43466     17.39634        -0.331795     -0.012358      0.080373
O      3.58206      8.50569     10.43466        -0.002193      0.427169     -0.081378
O     17.39634      8.50569     10.54374        -0.135380      0.431161      0.027605
O      3.58206     12.47271     10.54374         0.137726     -0.648368     -0.005202
O     17.39634     12.47271     10.43466        -0.276128     -0.743396     -0.002455
O      3.58206     10.43466      8.50569         0.145109     -0.045797      0.854839
O     17.39634     10.54374      8.50569         0.021673      0.041255      0.305968
O      3.58206     10.54374     12.47271         0.054124      0.010333     -0.401251
O     17.39634     10.43466     12.47271        -0.044958      0.010836     -0.364442
O     10.43466      8.50569      3.58206        -0.052005      0.530482     -0.192169
O     10.54374      8.50569     17.39634         0.032233      0.728376     -0.121574
O     10.54374     12.47271      3.58206         0.063774     -0.364785      0.090453
O     10.43466     12.47271     17.39634        -0.059294     -0.746239     -0.250164
O      8.50569      3.58206     10.43466         0.324905      0.028671     -0.063808
O      8.50569     17.39634     10.54374         0.533429     -0.136862      0.033919
O     12.47271      3.58206     10.54374        -0.448761      0.116627      0.015787
O     12.47271     17.39634     10.43466        -0.623658     -0.091814      0.048982
O     11.90042     11.90042     19.56718        -0.252909     -0.282791      0.218766
O     19.56718     19.56718     19.56718         0.293686      0.299490      0.257657
O     19.56718     11.90042     11.90042         0.245227     -0.294184     -0.301626
O     11.90042     19.56718     11.90042        -0.293832      0.168421     -0.244070
O      9.45224      1.03696      9.45224        -0.120916      0.124826     -0.081124
O      1.03696      9.45224      9.45224         0.145351     -0.150992     -0.115398
O      1.03696      1.03696      1.03696         0.154981      0.172279     -0.025059
O      9.45224      9.45224      1.03696        -0.171776     -0.205443      0.031414
Zr     10.48920      2.52580     10.48920         0.034494     -0.229628      0.224523
Zr     10.48920     18.45260     10.48920        -0.237646      0.280694     -0.304333
Zr     10.48920     10.48920      2.52580         0.146958      0.522218     -0.162749
Zr     10.48920     10.48920     18.45260         0.020485     -0.127237      0.423616
Zr      2.52580     10.48920     10.48920        -0.473557      0.105187      0.376668
Zr     18.45260     10.48920     10.48920         0.255692     -0.173482      0.068596
Pd      9.19612     14.46263      9.08710        -0.059141     -0.085970      0.260172
Pd      8.31507     13.43978     13.55124         0.149716     -0.415111     -0.217064
Pd     11.90474     14.51307      8.85032        -0.030102     -0.209059      0.271173
Pd     12.28712     12.75826     10.80455         0.022747      0.285381      0.468617
Pd     11.98462      7.12047     12.39799         0.005460      0.033535     -0.195366
Pd     10.98225     15.21926     11.29773         0.044106     -0.061149     -0.118329
Pd      9.59911     12.99273     11.22229        -0.074199     -0.120582      0.277154
Pd     13.58531     12.51892      8.33344         0.554154      0.279502     -0.170321
Pd     11.77357     11.75267      6.60977        -0.573265     -0.386053      0.102751
Pd      7.64043      8.24488      7.46169        -0.127521      0.174955     -0.333730
Pd      8.76441     11.86825      6.87884         0.153447      0.240102     -0.075546
Pd      9.86054      9.77690      8.10272         0.107888     -0.462810      0.047230
Pd      8.48472     14.51599      6.48792         0.032508      0.032719      0.034234
Pd     12.23505      9.05627      7.08521         0.057854     -0.099478     -0.133939
Pd     10.23759      9.86529      5.44479        -0.230160      0.062708      0.255606
Pd      6.82237      9.21739     12.24962         0.215263      0.129795     -0.063336
Pd     12.25273      6.47971      7.88715        -0.148048      0.032189      0.042677
Pd      5.70219     10.53411      9.90768        -0.047861     -0.086353      0.050287
Pd      7.58541      6.79646     13.10891         0.054638      0.008043     -0.062920
Ir     11.39470      9.61755     13.02274        -0.075238      0.110901     -0.172161
Ir     13.28783      9.18160     11.38319        -0.170076      0.174954     -0.158384
Ir      9.14858      8.65391     13.92404         0.021107     -0.670106      0.622514
Ir     10.27827     10.55016     15.15420         0.200242      0.361809     -0.011255
Ir      7.06426     11.85963     11.71379         0.522658     -0.134014      0.110472
Ir     14.56723     11.14674     10.40616        -0.059348     -0.291878      0.520427
Ir     12.40134     10.43907      9.32992         0.112160      0.091452     -0.058626
Ir      8.89850     10.88079     12.95150        -0.430432      0.960671     -0.507718
Ir     10.05207     10.16424     10.76458        -0.053287      0.186842      0.018691
Ir     13.32950     11.35345     12.64604         0.179087     -0.106742     -0.089662
Ir     11.09144     12.13017     13.26368        -0.121878      0.123708     -0.018794
Ir      8.10332     11.49746      9.43299         0.232377      0.253176      0.009381
Ir     11.42705      8.06815      9.86792        -0.347500     -0.238726     -0.284991
Ir      7.02639     13.32589      8.28875         0.071975     -0.288689      0.049804
Ir      9.28663      7.12011      9.10594         0.305192      0.013342      0.152062
Ir      7.88208      8.99913      9.91239         0.003959      0.355631      0.157514
Ir     10.59673     12.19363      8.87168        -0.541642     -0.016487     -0.126243
Ir      9.43657      7.82961     11.58746         0.110706     -0.277855     -0.462074
Ir     13.81327      8.23149      9.03732         0.077286      0.369697     -0.077456
