35
# total energy = -301.58018911 eVC      6.68495     10.29402      7.65117         0.005524      0.010572      0.003205
C      8.07103      9.93973      7.58014         0.011352     -0.005831     -0.005470
C      9.41813      5.70772      7.64977         0.013923      0.004117      0.005018
C      1.46357      5.35000      7.66830        -0.015480     -0.010249      0.002883
C      4.19683      0.76332      7.63390        -0.006342     -0.005842      0.000868
C      2.81063      1.11772      7.56514        -0.008679      0.001103     -0.002309
C      0.70681      4.16709      7.64468        -0.012708     -0.009222      0.003172
C      1.09567      2.79055      7.57165         0.004752     -0.008681     -0.004012
C      5.36060      1.54947      7.64639        -0.002889     -0.012601      0.003807
C      5.52088      9.50817      7.67061         0.006503      0.013547      0.006223
C     10.17539      6.89037      7.64252         0.005018      0.009180     -0.000652
C      9.78670      8.26733      7.57460         0.002592      0.006494     -0.001267
C      0.77543      6.57809      7.64835        -0.006968      0.027643      0.000690
C      1.25661      7.92700      7.58064         0.023571      0.010777     -0.006372
C     10.10650      4.47942      7.64276         0.003806     -0.023166     -0.002686
C      9.62580      3.13062      7.56959        -0.019223     -0.002620     -0.006680
C      4.27563     10.16549      7.65084        -0.015780      0.001966      0.003602
C      2.93896      9.65115      7.58151        -0.007944     -0.020837     -0.006628
C      6.60591      0.89210      7.63796         0.020750     -0.004507     -0.001739
C      7.94260      1.40629      7.56778         0.006743      0.016772     -0.009252
N      8.81063      0.31436      7.48016        -0.017654      0.004948     -0.005437
N      0.14411      8.76783      7.48786         0.006264     -0.017821     -0.003509
N      8.53490      8.69915      7.59833        -0.001078      0.006565      0.010622
N      2.34750      2.35827      7.59089        -0.002578     -0.003114      0.011190
N      2.07089     10.74272      7.48977         0.022635     -0.005412     -0.001923
N     10.73927      2.29021      7.48319        -0.007232      0.017250     -0.002844
N      2.56821      8.33012      7.59993         0.038088     -0.038069      0.005187
N      8.31408      2.72731      7.58365        -0.040551      0.037940      0.001136
O      5.32963      2.87828      7.62594         0.003721     -0.000070     -0.010930
O      5.55230      8.17917      7.67704        -0.005419      0.004476      0.004498
O      8.08910      5.70602      7.62292         0.001711     -0.003670     -0.004597
O      2.79275      5.35171      7.67772        -0.000326      0.001624      0.004991
Zr      6.53907      4.45837      7.59431        -0.003217      0.000624     -0.020649
Zr      4.34376      6.59816      7.68087         0.000149     -0.000801      0.015448
Zr      0.02633     10.81043      6.85162        -0.003037     -0.003084      0.014417
