35
# total energy = -286.20653677 eVC      6.62172     10.18215      7.54800         0.025254     -0.300585     -0.000209
C      8.01482      9.81026      7.54218        -0.325265      0.090754      0.003163
C      9.29157      5.59314      7.55753         0.895596      0.046005     -0.012492
C      1.51299      5.33710      7.55817        -1.015099     -0.040757     -0.001496
C      4.17995      0.74695      7.57660        -0.010626      0.299152     -0.000364
C      2.78703      1.11872      7.56765         0.315638     -0.039439      0.004955
C      0.70930      4.14830      7.55860         0.274439     -0.016295      0.003802
C      1.10948      2.76364      7.56025        -0.102298      0.298271      0.002839
C      5.35337      1.57363      7.58279        -0.057570     -0.911308     -0.008146
C      5.44826      9.35448      7.55506         0.051718      1.064793     -0.007397
C     10.09414      6.78186      7.54709        -0.253289      0.032935     -0.000768
C      9.69336      8.16679      7.54146         0.099813     -0.309417      0.002104
C      0.74641      6.54319      7.55128         0.352423      0.086986      0.004090
C      1.18467      7.92657      7.54602        -0.198001     -0.339015      0.003755
C     10.05757      4.38758      7.55709        -0.379163     -0.095107     -0.003268
C      9.61797      3.00462      7.56102         0.189436      0.301544     -0.002823
C      4.22792     10.09789      7.55048        -0.088045     -0.397050     -0.000538
C      2.85424      9.63091      7.54503         0.325516      0.174642      0.002449
C      6.57383      0.83148      7.57558         0.081913      0.393834      0.003040
C      7.94745      1.29931      7.56920        -0.307907     -0.197139      0.004022
N      8.77428      0.21757      7.56539         0.472557     -0.072948     -0.002495
N      0.08600      8.73099      7.54273        -0.083392      0.449353      0.001204
N      8.43582      8.56112      7.54291        -0.003371      0.006759      0.000843
N      2.36670      2.36875      7.56160         0.015300     -0.035141      0.005059
N      2.02741     10.71236      7.53804        -0.469841      0.071749      0.002182
N     10.71635      2.19969      7.55807         0.080904     -0.449277      0.001332
N      2.46884      8.33802      7.54723         0.112292     -0.086329      0.000518
N      8.33360      2.59189      7.56700        -0.111841      0.115158      0.000081
O      5.28073      2.84712      7.59482        -0.106620      0.714132     -0.007993
O      5.52043      8.08373      7.56402         0.120525     -0.855890      0.000037
O      8.01679      5.63980      7.56630        -0.728627      0.088641      0.002160
O      2.78573      5.28937      7.56571         0.825480     -0.090029     -0.004410
Pd      6.84882      4.04702      7.57918        -0.195646      0.205369      0.002725
Pd      3.95283      6.88252      7.56368         0.212722     -0.205785     -0.001550
Pd      0.02571     10.73181      7.53831        -0.014925      0.001431      0.003589
