152
# total energy = -1060.15632448 eVH     10.35389      5.87395      7.64558        -0.314895      0.101364      1.086561
H     10.62451     15.10445      7.64558         0.084738     -0.069870      0.894321
H     10.62451      5.87395     13.33282        -0.270866      0.073071     -0.784303
H     10.35389     15.10445     13.33282         0.096539     -0.302697     -0.824317
H      7.64558     10.35389      5.87395         0.894580     -0.203974      0.206364
H      7.64558     10.62451     15.10445         0.315662     -0.027640     -0.062970
H     13.33282     10.62451      5.87395        -0.885550      0.219541      0.221420
H     13.33282     10.35389     15.10445        -0.282623     -0.029822     -0.060489
H      5.87395      7.64558     10.35389         0.092872      0.422434     -0.011026
H     15.10445      7.64558     10.62451        -0.042679      0.436714     -0.031354
H      5.87395     13.33282     10.62451        -0.016088     -0.968416      0.079116
H     15.10445     13.33282     10.35389        -0.084620     -0.328212      0.001076
H      5.87395     10.35389      7.64558         0.318047      0.061999      0.371307
H     15.10445     10.62451      7.64558        -0.119431     -0.158346      0.667587
H      5.87395     10.62451     13.33282        -0.064113      0.452013     -0.602402
H     15.10445     10.35389     13.33282         0.229882     -0.638777     -0.879943
H     10.35389      7.64558      5.87395        -0.020800      0.499799      0.344988
H     10.62451      7.64558     15.10445         0.330971      0.789169     -0.007344
H     10.62451     13.33282      5.87395         0.151003     -0.568156      0.202165
H     10.35389     13.33282     15.10445         0.032737     -0.289580     -0.166575
H      7.64558      5.87395     10.35389         0.370107      0.113419      0.063412
H      7.64558     15.10445     10.62451         0.388819     -0.127945      0.178525
H     13.33282      5.87395     10.62451        -0.306809      0.137541     -0.014528
H     13.33282     15.10445     10.35389        -0.658964     -0.107052      0.136490
H     12.45634     12.45634     19.01126         0.259199      0.272401     -0.226197
H     19.01126     19.01126     19.01126        -0.248031     -0.267410     -0.244486
H     19.01126     12.45634     12.45634        -0.248973      0.271638      0.236760
H     12.45634     19.01126     12.45634         0.290108     -0.235107      0.235269
C     10.35284      5.61067      6.59456         0.401728     -0.418940     -1.357815
C     10.62556     15.36773      6.59456        -0.171385      0.608195     -0.660285
C     10.62556      5.61067     14.38384         0.366174     -0.275201      0.778980
C     10.35284     15.36773     14.38384        -0.205868      0.219869      1.028454
C      6.59456     10.35284      5.61067        -1.396125      0.032771     -0.228735
C      6.59456     10.62556     15.36773        -0.664724      0.065026      0.357404
C     14.38384     10.62556      5.61067         1.310121     -0.186277     -0.630289
C     14.38384     10.35284     15.36773         0.318585     -0.132432      0.353046
C      5.61067      6.59456     10.35284        -0.274219     -0.674595     -0.030774
C     15.36773      6.59456     10.62556         0.409232     -0.856117      0.028616
C      5.61067     14.38384     10.62556        -0.148195      1.194318     -0.218204
C     15.36773     14.38384     10.35284         0.503193      0.705044     -0.037112
C      5.61067     10.35284      6.59456        -0.370907     -0.102853     -0.775205
C     15.36773     10.62556      6.59456         0.402462      0.106579     -0.680155
C      5.61067     10.62556     14.38384        -0.406841     -0.163265      1.220340
C     15.36773     10.35284     14.38384         0.231004      0.226661      1.417076
C     10.35284      6.59456      5.61067        -0.069080     -0.746611     -0.547444
C     10.62556      6.59456     15.36773        -0.141081     -0.980903      0.375723
C     10.62556     14.38384      5.61067        -0.493963      0.383065     -0.738559
C     10.35284     14.38384     15.36773        -0.173471      0.737717      0.492910
C      6.59456      5.61067     10.35284        -0.563295     -0.337997      0.003344
C      6.59456     15.36773     10.62556        -0.365389      0.446447      0.065013
C     14.38384      5.61067     10.62556         0.434490     -0.309543      0.007709
C     14.38384     15.36773     10.35284         1.130157      0.485207     -0.079101
C     10.40319      3.19606      7.29314        -0.007757      0.787707     -0.337208
C     10.35913      4.25547      6.23373         0.023934     -0.378342      0.291360
C      0.08601      7.29314      7.29314        -0.018246     -0.381461     -0.505062
C      0.13007      6.23373      6.23373        -0.047169      0.878343      0.093115
C      0.08601      3.19606      3.19606        -0.006819      0.696372      0.259809
C      0.13007      4.25547      4.25547         0.046354     -0.266651     -0.548004
C     10.40319      7.29314      3.19606        -0.063942     -1.115154      0.623647
C     10.35913      6.23373      4.25547        -0.047071      0.348208     -0.203998
C      7.29314     10.40319      3.19606        -1.093327     -0.054822      0.200988
C      6.23373     10.35913      4.25547         0.380373      0.101875     -0.523956
C      7.29314      0.08601      7.29314        -0.480153      0.028953     -0.441184
C      6.23373      0.13007      6.23373         0.178763      0.121446      0.120399
C      3.19606      0.08601      3.19606         0.702922      0.023322      0.170105
C      4.25547      0.13007      4.25547        -0.172762     -0.050625     -0.366003
C      3.19606     10.40319      7.29314         0.373780     -0.026755     -0.951070
C      4.25547     10.35913      6.23373        -0.128866     -0.054267      0.114033
C      3.19606      7.29314     10.40319         0.615621     -0.398788      0.002423
C      4.25547      6.23373     10.35913        -0.115050      0.177958      0.011150
C      7.29314      7.29314      0.08601        -0.428971     -0.294052     -0.015332
C      6.23373      6.23373      0.13007         0.148444      0.154822     -0.062203
C      3.19606      3.19606      0.08601         0.293596      0.492690     -0.024733
C      4.25547      4.25547      0.13007        -0.402889     -0.239840     -0.031067
C      7.29314      3.19606     10.40319        -0.283214      0.593494     -0.009622
C      6.23373      4.25547     10.35913         0.016458     -0.093374      0.015401
O     10.43466      3.58206      8.50569        -0.026271      0.072017      0.301711
O     10.54374     17.39634      8.50569         0.063979     -0.123772      0.591588
O     10.54374      3.58206     12.47271         0.029105      0.101222     -0.397506
O     10.43466     17.39634     12.47271         0.094669     -0.062692     -0.435790
O      8.50569     10.43466      3.58206         0.735419     -0.073013      0.016965
O      8.50569     10.54374     17.39634         0.535854      0.062482     -0.102108
O     12.47271     10.54374      3.58206        -0.657369      0.112711      0.211739
O     12.47271     10.43466     17.39634        -0.280934      0.004143      0.036383
O      3.58206      8.50569     10.43466         0.033070      0.443412     -0.063803
O     17.39634      8.50569     10.54374        -0.055175      0.446877      0.056173
O      3.58206     12.47271     10.54374         0.104511     -0.587937      0.003722
O     17.39634     12.47271     10.43466        -0.183680     -0.741271     -0.048909
O      3.58206     10.43466      8.50569         0.207179     -0.060860      0.805068
O     17.39634     10.54374      8.50569        -0.073468      0.071245      0.489851
O      3.58206     10.54374     12.47271        -0.004877     -0.004582     -0.260837
O     17.39634     10.43466     12.47271         0.034024     -0.009928     -0.232826
O     10.43466      8.50569      3.58206        -0.107460      0.532989     -0.100358
O     10.54374      8.50569     17.39634         0.060118      0.510920     -0.083024
O     10.54374     12.47271      3.58206         0.103090     -0.638823      0.129660
O     10.43466     12.47271     17.39634        -0.065153     -0.696070     -0.278045
O      8.50569      3.58206     10.43466         0.396117      0.022804     -0.046326
O      8.50569     17.39634     10.54374         0.639974     -0.154349      0.046003
O     12.47271      3.58206     10.54374        -0.515904      0.121185      0.028509
O     12.47271     17.39634     10.43466        -0.624321     -0.124727      0.041156
O     11.90042     11.90042     19.56718        -0.278268     -0.303785      0.222647
O     19.56718     19.56718     19.56718         0.309430      0.322319      0.298226
O     19.56718     11.90042     11.90042         0.283566     -0.325325     -0.235415
O     11.90042     19.56718     11.90042        -0.314444      0.229419     -0.201243
O      9.45224      1.03696      9.45224        -0.075338      0.088442     -0.078590
O      1.03696      9.45224      9.45224         0.102082     -0.109552     -0.060948
O      1.03696      1.03696      1.03696         0.079127      0.054318      0.098413
O      9.45224      9.45224      1.03696        -0.058850     -0.125356      0.136737
Zr     10.48920      2.52580     10.48920         0.043071     -0.094965      0.121738
Zr     10.48920     18.45260     10.48920        -0.181835      0.246964     -0.361140
Zr     10.48920     10.48920      2.52580         0.112595      0.357158     -0.346360
Zr     10.48920     10.48920     18.45260        -0.080682     -0.261256      0.234936
Zr      2.52580     10.48920     10.48920        -0.241153      0.130031      0.244914
Zr     18.45260     10.48920     10.48920         0.196312     -0.137680     -0.022588
Pd      9.36008     14.30129      9.31066         0.001223      0.027103     -0.024452
Pd      8.59297     13.64552     13.04247         0.008895      0.016436      0.025058
Pd     12.02415     14.40258      8.74551         0.010917     -0.011347      0.013138
Pd     12.75498     12.87863     10.68666        -0.034579     -0.007805      0.034150
Pd     12.11948      7.19108     12.67571         0.002169     -0.010993     -0.001277
Pd     11.15548     14.90508     11.45116        -0.018483      0.024206     -0.016102
Pd     10.03454     12.55483     11.08401        -0.027108      0.031285     -0.036797
Pd     13.47959     12.15364      7.98443         0.007295      0.005420      0.008723
Pd     11.48021     11.54387      6.10790         0.005611      0.010198     -0.002852
Pd      7.94160      8.37761      7.52333        -0.001530     -0.026135     -0.004980
Pd      8.71919     11.75713      6.84406        -0.007377      0.004838      0.003891
Pd     10.32021      9.45227      8.15175        -0.015007     -0.001533      0.009420
Pd      8.49593     14.46409      6.78943        -0.007325      0.003283     -0.017530
Pd     12.39521      9.01958      6.56905        -0.007539      0.022106      0.032240
Pd      9.71758      9.61018      5.57371         0.005261      0.005501      0.004240
Pd      6.81961      9.45488     12.14166         0.011332      0.003579      0.011224
Pd     12.17924      6.74498      7.95403         0.012373      0.007062      0.006552
Pd      5.91301     10.48312      9.69469        -0.001338     -0.002749      0.008003
Pd      7.55068      7.23975     13.40782        -0.005427     -0.010604     -0.012435
Ir     11.73394      9.77431     13.06719        -0.026530     -0.008194      0.009783
Ir     13.55019      9.05589     11.47554        -0.004901      0.017435      0.010166
Ir      9.42375      8.86568     14.01029        -0.012829      0.016534      0.004644
Ir     10.50748     11.01315     14.89566        -0.013221     -0.054868      0.045271
Ir      7.27104     12.01532     11.34059        -0.012897      0.004544     -0.000070
Ir     14.64832     10.91350     10.15339        -0.027500      0.020165      0.041723
Ir     12.16074     10.57330      9.67945         0.011728      0.004646     -0.013608
Ir      8.75142     11.00543     12.99048         0.039835      0.005853      0.013156
Ir     10.10447      9.91741     11.17213         0.001754      0.006851     -0.018364
Ir     13.73454     11.41737     12.49361        -0.045257      0.006979      0.041105
Ir     11.58349     12.35064     13.09068        -0.074437     -0.034415      0.018574
Ir      8.49727     11.09704      9.33441        -0.008505      0.007198     -0.007698
Ir     11.59193      8.02748     10.14449         0.009661     -0.003300      0.006068
Ir      7.21781     13.03176      8.65625         0.011135      0.008448      0.008741
Ir      9.54739      6.96284      9.23885         0.004747     -0.004226     -0.003431
Ir      8.05128      8.76342     10.05847         0.004547     -0.000189     -0.010189
Ir     10.71920     12.12273      8.50136         0.006381      0.000144     -0.003509
Ir      9.51338      7.57245     11.75583         0.004113      0.010977     -0.002949
Ir     13.66571      8.80145      8.84208         0.017267      0.005531      0.022700
