152
# total energy = -1060.10759474 eVH     10.35389      5.87395      7.64558        -0.322859      0.097503      1.106324
H     10.62451     15.10445      7.64558         0.065019     -0.065258      0.920724
H     10.62451      5.87395     13.33282        -0.274026      0.066247     -0.794247
H     10.35389     15.10445     13.33282         0.080377     -0.305207     -0.849421
H      7.64558     10.35389      5.87395         0.910272     -0.182419      0.199611
H      7.64558     10.62451     15.10445         0.321513     -0.030800     -0.065817
H     13.33282     10.62451      5.87395        -0.880646      0.214624      0.230171
H     13.33282     10.35389     15.10445        -0.280916     -0.025749     -0.067566
H      5.87395      7.64558     10.35389         0.087768      0.432175     -0.009195
H     15.10445      7.64558     10.62451        -0.016675      0.427280     -0.063886
H      5.87395     13.33282     10.62451        -0.004793     -0.959887      0.089232
H     15.10445     13.33282     10.35389        -0.044360     -0.333009     -0.007810
H      5.87395     10.35389      7.64558         0.300628      0.081453      0.378073
H     15.10445     10.62451      7.64558        -0.115678     -0.172171      0.675512
H      5.87395     10.62451     13.33282        -0.073323      0.471001     -0.612375
H     15.10445     10.35389     13.33282         0.255320     -0.669620     -0.849426
H     10.35389      7.64558      5.87395        -0.045069      0.496476      0.341430
H     10.62451      7.64558     15.10445         0.345154      0.806136      0.008362
H     10.62451     13.33282      5.87395         0.158268     -0.560542      0.196945
H     10.35389     13.33282     15.10445         0.020267     -0.284068     -0.170725
H      7.64558      5.87395     10.35389         0.367026      0.107227      0.063031
H      7.64558     15.10445     10.62451         0.388792     -0.129573      0.171440
H     13.33282      5.87395     10.62451        -0.309074      0.138389     -0.017149
H     13.33282     15.10445     10.35389        -0.675409     -0.077856      0.122797
H     12.45634     12.45634     19.01126         0.257524      0.272145     -0.227377
H     19.01126     19.01126     19.01126        -0.246472     -0.268150     -0.246384
H     19.01126     12.45634     12.45634        -0.250049      0.272530      0.235809
H     12.45634     19.01126     12.45634         0.289151     -0.236849      0.234018
C     10.35284      5.61067      6.59456         0.401143     -0.420248     -1.358209
C     10.62556     15.36773      6.59456        -0.147372      0.592081     -0.644387
C     10.62556      5.61067     14.38384         0.369368     -0.287602      0.787486
C     10.35284     15.36773     14.38384        -0.214199      0.187118      1.076456
C      6.59456     10.35284      5.61067        -1.429612      0.038256     -0.247206
C      6.59456     10.62556     15.36773        -0.651328      0.066362      0.366403
C     14.38384     10.62556      5.61067         1.290013     -0.180443     -0.644932
C     14.38384     10.35284     15.36773         0.321946     -0.124857      0.343128
C      5.61067      6.59456     10.35284        -0.279330     -0.701195     -0.030702
C     15.36773      6.59456     10.62556         0.414677     -0.882800      0.047936
C      5.61067     14.38384     10.62556        -0.147847      1.177567     -0.220613
C     15.36773     14.38384     10.35284         0.523094      0.699643     -0.027638
C      5.61067     10.35284      6.59456        -0.376420     -0.096534     -0.738617
C     15.36773     10.62556      6.59456         0.428448      0.105969     -0.732914
C      5.61067     10.62556     14.38384        -0.405169     -0.171209      1.228252
C     15.36773     10.35284     14.38384         0.253045      0.206580      1.466251
C     10.35284      6.59456      5.61067        -0.059728     -0.739561     -0.574412
C     10.62556      6.59456     15.36773        -0.145764     -0.992895      0.377430
C     10.62556     14.38384      5.61067        -0.484294      0.375130     -0.748913
C     10.35284     14.38384     15.36773        -0.164140      0.758616      0.479875
C      6.59456      5.61067     10.35284        -0.574579     -0.353858     -0.001137
C      6.59456     15.36773     10.62556        -0.391746      0.450495      0.060087
C     14.38384      5.61067     10.62556         0.434586     -0.307636      0.005022
C     14.38384     15.36773     10.35284         1.148985      0.521166     -0.072313
C     10.40319      3.19606      7.29314        -0.004950      0.736655     -0.326685
C     10.35913      4.25547      6.23373         0.016918     -0.390490      0.280575
C      0.08601      7.29314      7.29314        -0.019047     -0.368852     -0.511780
C      0.13007      6.23373      6.23373        -0.049219      0.905382      0.089801
C      0.08601      3.19606      3.19606        -0.006298      0.704802      0.265724
C      0.13007      4.25547      4.25547         0.042320     -0.268294     -0.542228
C     10.40319      7.29314      3.19606        -0.066097     -1.136085      0.584545
C     10.35913      6.23373      4.25547        -0.042735      0.353613     -0.199556
C      7.29314     10.40319      3.19606        -1.122195     -0.060166      0.191592
C      6.23373     10.35913      4.25547         0.379357      0.091484     -0.534266
C      7.29314      0.08601      7.29314        -0.429155      0.032613     -0.490533
C      6.23373      0.13007      6.23373         0.177684      0.125630      0.127956
C      3.19606      0.08601      3.19606         0.726766      0.030182      0.163845
C      4.25547      0.13007      4.25547        -0.169167     -0.042010     -0.377340
C      3.19606     10.40319      7.29314         0.361700     -0.024438     -0.936397
C      4.25547     10.35913      6.23373        -0.134394     -0.063561      0.100789
C      3.19606      7.29314     10.40319         0.596306     -0.401879      0.001096
C      4.25547      6.23373     10.35913        -0.114095      0.190735      0.012391
C      7.29314      7.29314      0.08601        -0.428212     -0.302256     -0.018360
C      6.23373      6.23373      0.13007         0.146409      0.167217     -0.046544
C      3.19606      3.19606      0.08601         0.291474      0.487497     -0.026975
C      4.25547      4.25547      0.13007        -0.387975     -0.229002     -0.037758
C      7.29314      3.19606     10.40319        -0.273819      0.580547     -0.010216
C      6.23373      4.25547     10.35913         0.022989     -0.083661      0.017054
O     10.43466      3.58206      8.50569        -0.025768      0.081529      0.311097
O     10.54374     17.39634      8.50569         0.063872     -0.130323      0.610361
O     10.54374      3.58206     12.47271         0.028784      0.100598     -0.397975
O     10.43466     17.39634     12.47271         0.091918     -0.058057     -0.411854
O      8.50569     10.43466      3.58206         0.748474     -0.072670      0.007912
O      8.50569     10.54374     17.39634         0.482399      0.057741     -0.086924
O     12.47271     10.54374      3.58206        -0.668370      0.106484      0.214645
O     12.47271     10.43466     17.39634        -0.278350      0.005423      0.029485
O      3.58206      8.50569     10.43466         0.036674      0.448656     -0.063636
O     17.39634      8.50569     10.54374        -0.053748      0.453213      0.055949
O      3.58206     12.47271     10.54374         0.105870     -0.590346      0.003124
O     17.39634     12.47271     10.43466        -0.176227     -0.726732     -0.054165
O      3.58206     10.43466      8.50569         0.207253     -0.063973      0.803376
O     17.39634     10.54374      8.50569        -0.102221      0.074351      0.549885
O      3.58206     10.54374     12.47271        -0.009524     -0.003897     -0.252139
O     17.39634     10.43466     12.47271         0.046298     -0.011535     -0.212381
O     10.43466      8.50569      3.58206        -0.097111      0.536782     -0.102129
O     10.54374      8.50569     17.39634         0.059986      0.508268     -0.085137
O     10.54374     12.47271      3.58206         0.104376     -0.644729      0.129255
O     10.43466     12.47271     17.39634        -0.064734     -0.674899     -0.261683
O      8.50569      3.58206     10.43466         0.396794      0.027457     -0.041795
O      8.50569     17.39634     10.54374         0.639999     -0.156840      0.046616
O     12.47271      3.58206     10.54374        -0.512302      0.121269      0.030558
O     12.47271     17.39634     10.43466        -0.616854     -0.130414      0.038758
O     11.90042     11.90042     19.56718        -0.277919     -0.307363      0.225947
O     19.56718     19.56718     19.56718         0.306959      0.322788      0.300635
O     19.56718     11.90042     11.90042         0.283877     -0.328389     -0.233238
O     11.90042     19.56718     11.90042        -0.314093      0.230473     -0.200504
O      9.45224      1.03696      9.45224        -0.073506      0.078453     -0.081694
O      1.03696      9.45224      9.45224         0.093085     -0.108700     -0.060337
O      1.03696      1.03696      1.03696         0.080417      0.052851      0.101405
O      9.45224      9.45224      1.03696        -0.058585     -0.128770      0.133799
Zr     10.48920      2.52580     10.48920         0.039049     -0.082149      0.108423
Zr     10.48920     18.45260     10.48920        -0.175959      0.258044     -0.357777
Zr     10.48920     10.48920      2.52580         0.112294      0.362323     -0.354190
Zr     10.48920     10.48920     18.45260        -0.085084     -0.250057      0.224087
Zr      2.52580     10.48920     10.48920        -0.240893      0.137380      0.237061
Zr     18.45260     10.48920     10.48920         0.206630     -0.121987     -0.009270
Pd      9.37479     14.27785      9.34987        -0.003305      0.012433     -0.027429
Pd      8.60773     13.66147     12.97224         0.006023     -0.001281      0.016307
Pd     12.02724     14.39888      8.72495        -0.001181     -0.010066      0.012228
Pd     12.83062     12.88588     10.64378        -0.053257      0.003605      0.042570
Pd     12.10764      7.18088     12.66357         0.009044      0.001468     -0.000968
Pd     11.20104     14.85256     11.49098        -0.025478      0.018259     -0.022940
Pd     10.09857     12.49997     11.09358        -0.049901      0.041393     -0.020473
Pd     13.46899     12.11958      7.97180         0.008353      0.016164      0.001746
Pd     11.47884     11.53347      6.10203         0.000509      0.005492      0.003916
Pd      7.92359      8.47480      7.52788         0.006049     -0.036782      0.008845
Pd      8.71868     11.76019      6.83850         0.001433     -0.005406     -0.002637
Pd     10.35443      9.45425      8.13112        -0.020231     -0.003589      0.002961
Pd      8.50807     14.46906      6.82242        -0.008350      0.001331     -0.017254
Pd     12.40012      8.98361      6.51411         0.004374      0.016968      0.015123
Pd      9.71008      9.61572      5.56146        -0.001317     -0.004201      0.004192
Pd      6.82345      9.44292     12.16924         0.002666      0.018803      0.004705
Pd     12.18125      6.72727      7.93938        -0.003781      0.010208      0.002118
Pd      5.91049     10.46449      9.71683        -0.007577     -0.000968     -0.010451
Pd      7.57243      7.23075     13.44009        -0.019417     -0.005683     -0.018180
Ir     11.76141      9.77000     13.04879        -0.020320     -0.010187      0.000665
Ir     13.55315      9.01749     11.44361        -0.007933      0.024813      0.017928
Ir      9.45105      8.86551     14.00094        -0.024708      0.019205     -0.012116
Ir     10.54717     11.05208     14.83671        -0.023602     -0.030230      0.042971
Ir      7.28564     12.00876     11.33126         0.000079      0.010679     -0.007528
Ir     14.66824     10.86007     10.10162        -0.008961      0.030375      0.024549
Ir     12.14450     10.58328      9.71606        -0.002288     -0.012506     -0.018306
Ir      8.75205     11.00480     12.99378         0.014652      0.004740      0.005111
Ir     10.09763      9.89211     11.18598         0.007975      0.017310      0.010332
Ir     13.78100     11.38616     12.43425        -0.029250     -0.001033      0.033243
Ir     11.67539     12.37315     13.07124        -0.064580     -0.016401      0.014845
Ir      8.49712     11.07842      9.32746         0.004267     -0.002452      0.008179
Ir     11.56615      8.02024     10.12537         0.029022      0.004180      0.010205
Ir      7.22487     13.02502      8.66069        -0.002469      0.006470      0.009271
Ir      9.51789      6.98363      9.20721        -0.007983     -0.029219     -0.010056
Ir      8.03418      8.76032     10.07466         0.007064     -0.013219     -0.007719
Ir     10.71057     12.11998      8.49604         0.001173      0.012676     -0.017311
Ir      9.49902      7.54547     11.74646         0.021188     -0.004929      0.004494
Ir     13.61756      8.81463      8.80061         0.022184      0.001489      0.036151
