152
# total energy = -1060.07028202 eVH     10.35389      5.87395      7.64558        -0.272681      0.026995      1.132616
H     10.62451     15.10445      7.64558         0.076759     -0.089364      0.924450
H     10.62451      5.87395     13.33282        -0.255171      0.080219     -0.790480
H     10.35389     15.10445     13.33282         0.101198     -0.300517     -0.880053
H      7.64558     10.35389      5.87395         0.932495     -0.132829      0.186252
H      7.64558     10.62451     15.10445         0.329306     -0.037599     -0.074289
H     13.33282     10.62451      5.87395        -0.862814      0.201091      0.204522
H     13.33282     10.35389     15.10445        -0.278536     -0.012868     -0.068125
H      5.87395      7.64558     10.35389         0.087834      0.416925     -0.009329
H     15.10445      7.64558     10.62451        -0.000016      0.498456     -0.030566
H      5.87395     13.33282     10.62451        -0.016798     -0.962033      0.078118
H     15.10445     13.33282     10.35389        -0.086210     -0.320554      0.004278
H      5.87395     10.35389      7.64558         0.280186      0.113230      0.408152
H     15.10445     10.62451      7.64558        -0.124129     -0.171402      0.660961
H      5.87395     10.62451     13.33282        -0.088179      0.463499     -0.620487
H     15.10445     10.35389     13.33282         0.248626     -0.625072     -0.828657
H     10.35389      7.64558      5.87395        -0.040696      0.483962      0.334245
H     10.62451      7.64558     15.10445         0.243709      0.765187     -0.034141
H     10.62451     13.33282      5.87395         0.125252     -0.573308      0.209340
H     10.35389     13.33282     15.10445         0.041133     -0.286939     -0.140539
H      7.64558      5.87395     10.35389         0.343556      0.097984      0.027358
H      7.64558     15.10445     10.62451         0.378457     -0.117678      0.164535
H     13.33282      5.87395     10.62451        -0.315674      0.129745     -0.031453
H     13.33282     15.10445     10.35389        -0.652980     -0.130690      0.149076
H     12.45634     12.45634     19.01126         0.255556      0.271204     -0.228725
H     19.01126     19.01126     19.01126        -0.246449     -0.267961     -0.245512
H     19.01126     12.45634     12.45634        -0.251013      0.269605      0.235357
H     12.45634     19.01126     12.45634         0.290603     -0.235702      0.234566
C     10.35284      5.61067      6.59456         0.398377     -0.418311     -1.439090
C     10.62556     15.36773      6.59456        -0.158939      0.585754     -0.643096
C     10.62556      5.61067     14.38384         0.384473     -0.338575      0.840221
C     10.35284     15.36773     14.38384        -0.227875      0.229937      1.094961
C      6.59456     10.35284      5.61067        -1.375848      0.021999     -0.233186
C      6.59456     10.62556     15.36773        -0.644390      0.062593      0.370560
C     14.38384     10.62556      5.61067         1.311145     -0.169474     -0.629856
C     14.38384     10.35284     15.36773         0.362783     -0.124467      0.358978
C      5.61067      6.59456     10.35284        -0.288727     -0.644960     -0.019673
C     15.36773      6.59456     10.62556         0.420968     -0.970578      0.032659
C      5.61067     14.38384     10.62556        -0.134126      1.166515     -0.179759
C     15.36773     14.38384     10.35284         0.462742      0.650754     -0.026870
C      5.61067     10.35284      6.59456        -0.368964     -0.100253     -0.722720
C     15.36773     10.62556      6.59456         0.408457      0.118523     -0.731283
C      5.61067     10.62556     14.38384        -0.381382     -0.172482      1.232520
C     15.36773     10.35284     14.38384         0.269598      0.191370      1.468681
C     10.35284      6.59456      5.61067        -0.053459     -0.720119     -0.604402
C     10.62556      6.59456     15.36773        -0.101860     -0.869909      0.346083
C     10.62556     14.38384      5.61067        -0.470833      0.410793     -0.707581
C     10.35284     14.38384     15.36773        -0.155550      0.598616      0.419796
C      6.59456      5.61067     10.35284        -0.511252     -0.335835      0.027873
C      6.59456     15.36773     10.62556        -0.379128      0.451334      0.056486
C     14.38384      5.61067     10.62556         0.447493     -0.375867      0.001522
C     14.38384     15.36773     10.35284         1.118773      0.496172     -0.073066
C     10.40319      3.19606      7.29314        -0.000635      0.674345     -0.338977
C     10.35913      4.25547      6.23373         0.009348     -0.430283      0.289885
C      0.08601      7.29314      7.29314        -0.013317     -0.365517     -0.503921
C      0.13007      6.23373      6.23373        -0.071079      0.845552      0.064843
C      0.08601      3.19606      3.19606        -0.002474      0.681298      0.267592
C      0.13007      4.25547      4.25547         0.030812     -0.271714     -0.541038
C     10.40319      7.29314      3.19606        -0.066783     -1.152473      0.577905
C     10.35913      6.23373      4.25547        -0.039168      0.366689     -0.199705
C      7.29314     10.40319      3.19606        -1.081533     -0.056710      0.192392
C      6.23373     10.35913      4.25547         0.365294      0.085493     -0.540923
C      7.29314      0.08601      7.29314        -0.428275      0.033073     -0.528689
C      6.23373      0.13007      6.23373         0.180842      0.128331      0.127211
C      3.19606      0.08601      3.19606         0.696865      0.024343      0.164425
C      4.25547      0.13007      4.25547        -0.172559     -0.052542     -0.359169
C      3.19606     10.40319      7.29314         0.389068     -0.025860     -0.886079
C      4.25547     10.35913      6.23373        -0.155493     -0.078523      0.098768
C      3.19606      7.29314     10.40319         0.604495     -0.394439      0.002553
C      4.25547      6.23373     10.35913        -0.113362      0.182826      0.000384
C      7.29314      7.29314      0.08601        -0.409398     -0.317601     -0.014670
C      6.23373      6.23373      0.13007         0.184943      0.189400     -0.064129
C      3.19606      3.19606      0.08601         0.288715      0.479116     -0.023669
C      4.25547      4.25547      0.13007        -0.403232     -0.230171     -0.032927
C      7.29314      3.19606     10.40319        -0.278800      0.592510     -0.011383
C      6.23373      4.25547     10.35913         0.004610     -0.114489      0.021078
O     10.43466      3.58206      8.50569        -0.028565      0.094779      0.321814
O     10.54374     17.39634      8.50569         0.062720     -0.130038      0.592412
O     10.54374      3.58206     12.47271         0.027427      0.106442     -0.391804
O     10.43466     17.39634     12.47271         0.089895     -0.046833     -0.383717
O      8.50569     10.43466      3.58206         0.709453     -0.061905      0.013010
O      8.50569     10.54374     17.39634         0.476028      0.057995     -0.077059
O     12.47271     10.54374      3.58206        -0.650852      0.116359      0.205113
O     12.47271     10.43466     17.39634        -0.283748     -0.004830      0.020744
O      3.58206      8.50569     10.43466         0.041155      0.461248     -0.068121
O     17.39634      8.50569     10.54374        -0.060113      0.454024      0.056598
O      3.58206     12.47271     10.54374         0.114577     -0.583002      0.002159
O     17.39634     12.47271     10.43466        -0.172202     -0.741813     -0.057019
O      3.58206     10.43466      8.50569         0.212471     -0.061864      0.783224
O     17.39634     10.54374      8.50569        -0.101911      0.075714      0.562935
O      3.58206     10.54374     12.47271        -0.001458     -0.001936     -0.267711
O     17.39634     10.43466     12.47271         0.038170     -0.012614     -0.224000
O     10.43466      8.50569      3.58206        -0.104781      0.570216     -0.114892
O     10.54374      8.50569     17.39634         0.068257      0.503785     -0.089801
O     10.54374     12.47271      3.58206         0.104961     -0.626106      0.133805
O     10.43466     12.47271     17.39634        -0.059577     -0.649012     -0.252366
O      8.50569      3.58206     10.43466         0.395232      0.026617     -0.035199
O      8.50569     17.39634     10.54374         0.629219     -0.154394      0.048278
O     12.47271      3.58206     10.54374        -0.507405      0.126685      0.035942
O     12.47271     17.39634     10.43466        -0.621793     -0.133531      0.039328
O     11.90042     11.90042     19.56718        -0.273643     -0.307349      0.234517
O     19.56718     19.56718     19.56718         0.303124      0.318156      0.300138
O     19.56718     11.90042     11.90042         0.284923     -0.324626     -0.231463
O     11.90042     19.56718     11.90042        -0.316792      0.229599     -0.202158
O      9.45224      1.03696      9.45224        -0.085378      0.086406     -0.065768
O      1.03696      9.45224      9.45224         0.103497     -0.118037     -0.045259
O      1.03696      1.03696      1.03696         0.083302      0.055708      0.098458
O      9.45224      9.45224      1.03696        -0.060602     -0.131602      0.131859
Zr     10.48920      2.52580     10.48920         0.031520     -0.089784      0.075771
Zr     10.48920     18.45260     10.48920        -0.170455      0.260830     -0.347192
Zr     10.48920     10.48920      2.52580         0.119883      0.354469     -0.349941
Zr     10.48920     10.48920     18.45260        -0.083365     -0.202463      0.180785
Zr      2.52580     10.48920     10.48920        -0.255828      0.126458      0.227494
Zr     18.45260     10.48920     10.48920         0.227329     -0.114422     -0.003111
Pd      9.39386     14.25856      9.36084        -0.002381      0.036700     -0.049274
Pd      8.62400     13.70409     12.98684        -0.014365     -0.019152      0.017041
Pd     12.03224     14.41432      8.74682         0.013705     -0.012586     -0.002396
Pd     12.76695     12.81386     10.63007        -0.032299      0.017951      0.028902
Pd     12.15120      7.11036     12.61519        -0.003363      0.003346     -0.002375
Pd     11.21313     14.83160     11.50782        -0.022154      0.029461     -0.031918
Pd     10.08171     12.49351     11.11590        -0.038032      0.043101     -0.020892
Pd     13.48150     12.13621      7.98189         0.005030      0.004539      0.004043
Pd     11.48048     11.55707      6.11136         0.004084      0.006639      0.006901
Pd      7.85542      8.55824      7.54623         0.009460     -0.037299     -0.011350
Pd      8.73819     11.73011      6.88714        -0.004612      0.009917     -0.009825
Pd     10.31061      9.46266      8.14226        -0.006470      0.002715      0.006444
Pd      8.50707     14.43408      6.84653        -0.010152      0.007095     -0.028815
Pd     12.36934      9.03498      6.58545        -0.002725      0.008611      0.009061
Pd      9.74435      9.60820      5.55359         0.001571      0.009855      0.001397
Pd      6.87541      9.46287     12.19024        -0.008653     -0.000121     -0.004735
Pd     12.20993      6.68766      7.86845         0.002304      0.013527      0.017918
Pd      5.95426     10.46654      9.73096        -0.014353     -0.015942     -0.003468
Pd      7.57742      7.13101     13.25037        -0.004714      0.021890      0.053115
Ir     11.80491      9.69593     13.06016        -0.027568     -0.003840      0.002870
Ir     13.58089      8.99193     11.44297        -0.018533      0.013407      0.015202
Ir      9.42450      8.82747     13.87274        -0.013987     -0.027313      0.070660
Ir     10.56409     10.90578     14.88027        -0.010823     -0.000016      0.085263
Ir      7.29390     12.03274     11.36961         0.006031     -0.025393      0.006793
Ir     14.69339     10.83635     10.09609        -0.014120      0.040249      0.038145
Ir     12.20164     10.47985      9.65587        -0.012722      0.018293     -0.010075
Ir      8.78751     11.04523     13.02332        -0.009451      0.039665     -0.059319
Ir     10.14724      9.85361     11.22421        -0.009864      0.028994     -0.061923
Ir     13.76594     11.36250     12.41265        -0.040778      0.004248      0.055448
Ir     11.64816     12.28738     13.11405        -0.088883     -0.002797     -0.018936
Ir      8.53465     11.06932      9.38608        -0.020640      0.014534     -0.020700
Ir     11.59943      7.97138     10.06591         0.007236      0.018036      0.022766
Ir      7.23981     12.99394      8.70027         0.021382      0.033530      0.003791
Ir      9.51682      7.00204      9.10091         0.009540     -0.008097      0.040741
Ir      8.07260      8.74304     10.10539        -0.011140      0.013420     -0.014187
Ir     10.76100     12.09068      8.53939        -0.000123      0.008382     -0.030910
Ir      9.57562      7.43503     11.65609        -0.016582      0.061762      0.046135
Ir     13.70219      8.69517      8.80294        -0.000206      0.023597      0.017673
