38
# total energy = -255.13130940 eVH      1.22291      6.94344      7.50000         0.016081     -0.017993     -0.000000
H      8.09747      6.77264      7.50000         0.008614     -0.010974      0.000000
H      4.46087     13.87256      7.50000         0.006833     -0.015160      0.000000
H     12.67691      2.17968      7.50000        -0.016081      0.017993      0.000000
H      5.80234      2.35048      7.50000        -0.008614      0.010974     -0.000000
H      9.43895     -4.74944      7.50000        -0.006833      0.015160     -0.000000
H      5.81791     -2.34411      7.50000        -0.021226      0.005060      0.000000
H      9.43853      4.73198      7.50000         0.021089     -0.009287     -0.000000
H     12.66342     -2.17307      7.50000         0.012225      0.010223      0.000000
H      8.08191     11.46724      7.50000         0.021226     -0.005060      0.000000
H      4.46128      4.39115      7.50000        -0.021089      0.009287      0.000000
H      1.23639     11.29619      7.50000        -0.012225     -0.010223      0.000000
C      7.74011     -3.36746      7.50000        -0.046439     -0.115600      0.000000
C     12.48314      0.00362      7.50000        -0.041890      0.007815      0.000000
C      7.73233      3.36250      7.50000        -0.072823      0.084677      0.000000
C      6.15970     12.49058      7.50000         0.046439      0.115600     -0.000000
C      1.41667      9.11950      7.50000         0.041890     -0.007815     -0.000000
C      6.16749      5.76062      7.50000         0.072823     -0.084677      0.000000
C     13.20691     -1.22572      7.50000         0.005495     -0.035158      0.000000
C      8.34948      4.64485      7.50000         0.018955     -0.018850      0.000000
C      6.31760     -3.31509      7.50000         0.042998      0.034595     -0.000000
C      0.69291     10.34884      7.50000        -0.005495      0.035158     -0.000000
C      5.55033      4.47827      7.50000        -0.018955      0.018850     -0.000000
C      7.58221     12.43821      7.50000        -0.042998     -0.034595     -0.000000
C      5.55006     13.77768      7.50000        -0.035967     -0.072856     -0.000000
C      7.59027      5.80495      7.50000        -0.039714      0.016890     -0.000000
C      0.68665      7.89353      7.50000        -0.015362     -0.002145      0.000000
C      8.34976     -4.65456      7.50000         0.035967      0.072856     -0.000000
C      6.30954      3.31817      7.50000         0.039714     -0.016890     -0.000000
C     13.21316      1.22959      7.50000         0.015362      0.002145     -0.000000
N      5.83389      9.12761      7.50000         0.093901      0.012665      0.000000
N      8.06592     -0.00449      7.50000        -0.093901     -0.012665      0.000000
Ir      8.78121      1.65410      7.50000         0.027617     -0.036302     -0.000000
Ir      8.78969     -1.66025      7.50000         0.020622      0.018969      0.000000
Ir     10.55079      0.00126      7.50000         0.058656      0.013102     -0.000000
Ir      5.11861      7.46902      7.50000        -0.027617      0.036302      0.000000
Ir      5.11013     10.78337      7.50000        -0.020622     -0.018969     -0.000000
Ir      3.34902      9.12187      7.50000        -0.058656     -0.013102      0.000000
