152
# total energy = -1003.54707772 eVH     10.35389      5.87395      7.64558        -0.107953      0.160398      0.762140
H     10.62451     15.10445      7.64558        -0.466160     -0.071122      1.003413
H     10.62451      5.87395     13.33282         0.292753     -0.050077     -0.778055
H     10.35389     15.10445     13.33282         0.026037     -0.167037     -0.553011
H      7.64558     10.35389      5.87395         0.539012      0.095066     -0.028786
H      7.64558     10.62451     15.10445         0.732684      0.546426     -0.045975
H     13.33282     10.62451      5.87395        -0.609625     -0.051896      0.279838
H     13.33282     10.35389     15.10445        -0.600923     -0.142264     -0.077260
H      5.87395      7.64558     10.35389         0.037050      1.683816      0.248409
H     15.10445      7.64558     10.62451        -0.047866      0.732870      0.058161
H      5.87395     13.33282     10.62451         0.218557     -0.805955      0.135535
H     15.10445     13.33282     10.35389        -0.000013     -1.123479     -0.057434
H      5.87395     10.35389      7.64558        -0.053487      0.097579      0.793577
H     15.10445     10.62451      7.64558        -0.077028      0.733268      1.371631
H      5.87395     10.62451     13.33282        -0.036654      0.382775     -1.420284
H     15.10445     10.35389     13.33282         0.516301      0.061451     -1.011750
H     10.35389      7.64558      5.87395         0.341240      1.476244     -0.078084
H     10.62451      7.64558     15.10445         0.540294      1.030692     -0.061032
H     10.62451     13.33282      5.87395        -0.661303     -0.775337      0.146559
H     10.35389     13.33282     15.10445        -0.063131     -0.422347     -0.190408
H      7.64558      5.87395     10.35389         1.095749     -0.189028     -0.237149
H      7.64558     15.10445     10.62451         0.759563     -0.192480      0.132275
H     13.33282      5.87395     10.62451        -0.909117      0.069404      0.488123
H     13.33282     15.10445     10.35389        -0.326455     -0.086893     -0.034729
H     12.45634     12.45634     19.01126         0.269259      0.233695     -0.247702
H     19.01126     19.01126     19.01126        -0.267734     -0.259631     -0.226870
H     19.01126     12.45634     12.45634        -0.270887      0.254799      0.235609
H     12.45634     19.01126     12.45634         0.257562     -0.273503      0.231112
C     10.35284      5.61067      6.59456        -0.090959     -0.929844     -0.830843
C     10.62556     15.36773      6.59456         0.189210      0.371190     -0.559153
C     10.62556      5.61067     14.38384        -0.312421     -0.767548      0.767675
C     10.35284     15.36773     14.38384         0.005702      0.208490      0.636859
C      6.59456     10.35284      5.61067        -0.792985      0.083610     -0.504903
C      6.59456     10.62556     15.36773        -0.708217      0.197007      0.807972
C     14.38384     10.62556      5.61067         0.800355      0.030568     -0.811536
C     14.38384     10.35284     15.36773         1.184960      0.017032      0.716235
C      5.61067      6.59456     10.35284        -0.755946     -0.728153     -0.232312
C     15.36773      6.59456     10.62556         0.638427      0.216285     -0.146051
C      5.61067     14.38384     10.62556        -0.388470      0.839353     -0.058803
C     15.36773     14.38384     10.35284         0.422277      1.232809     -0.204721
C      5.61067     10.35284      6.59456        -0.296694      0.004811     -0.967701
C     15.36773     10.62556      6.59456         0.323908     -0.195597     -0.920610
C      5.61067     10.62556     14.38384        -0.436338     -0.055527      1.168351
C     15.36773     10.35284     14.38384         0.070352     -0.020919      1.356964
C     10.35284      6.59456      5.61067        -0.098417     -1.245103     -0.503379
C     10.62556      6.59456     15.36773        -0.087848     -0.885340      0.737096
C     10.62556     14.38384      5.61067        -0.008116      1.060694     -0.714885
C     10.35284     14.38384     15.36773        -0.025038      0.450650      0.245625
C      6.59456      5.61067     10.35284        -0.667855     -1.274621      0.162788
C      6.59456     15.36773     10.62556        -0.864779      0.392259     -0.006277
C     14.38384      5.61067     10.62556         0.166033     -0.659870     -0.108282
C     14.38384     15.36773     10.35284         0.109747      0.532816     -0.032021
C     10.40319      3.19606      7.29314        -0.005829      0.341915     -1.088613
C     10.35913      4.25547      6.23373        -0.020536     -0.440409      0.145011
C      0.08601      7.29314      7.29314        -0.048293     -0.917576     -0.284359
C      0.13007      6.23373      6.23373         0.047390      0.418041      0.597267
C      0.08601      3.19606      3.19606         0.008262      0.982828      0.336477
C      0.13007      4.25547      4.25547         0.050198     -0.538927     -0.404023
C     10.40319      7.29314      3.19606        -0.014244     -0.473727      0.210951
C     10.35913      6.23373      4.25547        -0.002836      0.233271     -0.578943
C      7.29314     10.40319      3.19606        -0.285114      0.011446      0.176194
C      6.23373     10.35913      4.25547         0.178103     -0.022572     -0.266750
C      7.29314      0.08601      7.29314        -0.938459     -0.090379     -0.348615
C      6.23373      0.13007      6.23373         0.645339     -0.204147      0.333088
C      3.19606      0.08601      3.19606         1.018845     -0.047366      0.318401
C      4.25547      0.13007      4.25547        -0.554165     -0.179797     -0.439957
C      3.19606     10.40319      7.29314         0.449433      0.011752     -0.200594
C      4.25547     10.35913      6.23373        -0.228863     -0.004943      0.171722
C      3.19606      7.29314     10.40319         0.295426     -0.457586      0.031880
C      4.25547      6.23373     10.35913        -0.967723     -0.030873      0.087259
C      7.29314      7.29314      0.08601        -0.462351     -0.359847     -0.030536
C      6.23373      6.23373      0.13007         0.695492      0.169963      0.025552
C      3.19606      3.19606      0.08601         0.850903      0.414223     -0.020844
C      4.25547      4.25547      0.13007        -0.101470     -0.893561     -0.042636
C      7.29314      3.19606     10.40319        -0.424884      0.403952      0.020787
C      6.23373      4.25547     10.35913         0.371459     -0.755189      0.102791
O     10.43466      3.58206      8.50569         0.101362      0.219586      0.854472
O     10.54374     17.39634      8.50569         0.051436     -0.065440      0.327528
O     10.54374      3.58206     12.47271         0.018644      0.007964     -0.348286
O     10.43466     17.39634     12.47271        -0.038300     -0.131676     -0.396573
O      8.50569     10.43466      3.58206         0.496718     -0.032309      0.172452
O      8.50569     10.54374     17.39634         0.825422     -0.065502     -0.217550
O     12.47271     10.54374      3.58206        -0.850942      0.143158      0.195068
O     12.47271     10.43466     17.39634        -0.541137      0.019597     -0.200368
O      3.58206      8.50569     10.43466         0.185882      0.606072     -0.040399
O     17.39634      8.50569     10.54374        -0.150501      0.546133      0.039677
O      3.58206     12.47271     10.54374         0.082911     -0.472024      0.041275
O     17.39634     12.47271     10.43466        -0.166890     -0.523483     -0.041411
O      3.58206     10.43466      8.50569         0.127026     -0.018212      0.336520
O     17.39634     10.54374      8.50569        -0.013013      0.100567      0.355145
O      3.58206     10.54374     12.47271         0.034647      0.055711     -0.338357
O     17.39634     10.43466     12.47271        -0.150483     -0.031135     -0.365847
O     10.43466      8.50569      3.58206        -0.034006      0.593513      0.197110
O     10.54374      8.50569     17.39634        -0.079369      0.793406     -0.188735
O     10.54374     12.47271      3.58206         0.166104     -0.825412      0.204424
O     10.43466     12.47271     17.39634        -0.028773     -0.290756      0.025477
O      8.50569      3.58206     10.43466         0.604342      0.152855     -0.058051
O      8.50569     17.39634     10.54374         0.589538     -0.197984      0.005281
O     12.47271      3.58206     10.54374        -0.751428      0.092853      0.008865
O     12.47271     17.39634     10.43466        -0.535984     -0.140267     -0.037055
O     11.90042     11.90042     19.56718        -0.304416     -0.237037      0.253528
O     19.56718     19.56718     19.56718         0.310505      0.317830      0.229926
O     19.56718     11.90042     11.90042         0.349209     -0.268215     -0.257299
O     11.90042     19.56718     11.90042        -0.293850      0.358695     -0.243555
O      9.45224      1.03696      9.45224        -0.006739      0.118813     -0.117844
O      1.03696      9.45224      9.45224         0.063669     -0.000010     -0.121404
O      1.03696      1.03696      1.03696         0.055517      0.115269      0.086465
O      9.45224      9.45224      1.03696        -0.029913     -0.012735      0.095420
Zr     10.48920      2.52580     10.48920        -0.208739     -0.347518      0.226274
Zr     10.48920     18.45260     10.48920         0.051116      0.050829      0.093819
Zr     10.48920     10.48920      2.52580        -0.227152     -0.246850     -0.347070
Zr     10.48920     10.48920     18.45260         0.049109     -0.002576      0.325271
Zr      2.52580     10.48920     10.48920        -0.125603     -0.170203      0.003897
Zr     18.45260     10.48920     10.48920         0.064250     -0.056532      0.072869
Pd     12.31808      8.28829     10.07227         0.085104      0.014571     -0.095662
Pd      7.21995      9.45225     10.60530        -0.071914      0.050780     -0.061881
Pd      6.89317     11.71490     12.00680        -0.018573      0.015793     -0.099876
Pd     12.10821     13.68551      7.53068         0.075842     -0.020205      0.041009
Pd     11.72480      7.89594      7.49482         0.059152      0.078499     -0.023664
Pd      8.79502      7.56044      7.10763        -0.156804     -0.088716     -0.013105
Pd     11.70231     11.68162      5.82252        -0.028528     -0.019794     -0.016573
Pd     14.14943      8.97066      7.63938        -0.018992      0.028584      0.091683
Pd      9.73008     12.00046      7.89262         0.012843     -0.054242     -0.104945
Pd      7.10669      7.01562     12.06118        -0.027094      0.039053     -0.044949
Pd      6.71664      7.60884      8.61749        -0.082467      0.104080      0.015558
Pd      7.26842      9.18444     13.48845        -0.029699     -0.056950     -0.017113
Pd     11.41175      5.79077      9.29920        -0.010375      0.094352     -0.042372
Pd     10.10141      9.78995      6.46096        -0.035888     -0.034884     -0.085534
Pd      8.94633     14.08874      9.29599         0.117165     -0.118968     -0.015611
Pd     11.03795      6.70295     11.71906         0.118753      0.001678     -0.021753
Pd     10.05358      9.30344      9.21046         0.035656     -0.010846     -0.052892
Pd      9.08506     11.45160     10.42329         0.278716     -0.051456      0.023790
Pd      9.09858      7.01681      9.82862        -0.039102      0.032826      0.066438
Pd      8.81220      7.05028     14.03527         0.022609      0.062136      0.038404
Pd      9.39044      8.75912     11.87954        -0.048857      0.157001     -0.061528
Pd     12.13032     10.67635      8.27152         0.036413      0.098679     -0.004915
Pd      6.92294     12.15195      9.20393        -0.072226      0.067381      0.056101
Pd      7.88189      9.96254      8.05617         0.061260      0.011441     -0.047236
Pd     13.91352      6.61894      8.65282         0.002913     -0.146056     -0.019276
Pd     13.58825      7.60137     12.28952        -0.092690      0.033805     -0.013600
Pd      9.27537     11.16743     13.10336         0.055742      0.109448     -0.007065
Pd     14.01922     12.46318      8.74288         0.089382     -0.001268      0.007074
Pd     13.40557     10.28080     12.66974         0.178360      0.005799      0.179256
Pd     14.11359     10.14740     10.11697         0.099326     -0.018224     -0.022997
Pd     11.41024     10.56203     11.21898        -0.198751      0.006039     -0.216747
Pd     11.31627     13.01538      9.93908         0.044738     -0.021838      0.033373
Pd     13.59761     12.52430     11.37813         0.025098      0.004685     -0.029688
Pd     11.34520     12.86719     12.57173        -0.033917      0.030135      0.042547
Pd     11.56777     11.17655     14.56666        -0.124135      0.038755     -0.061113
Pd     11.44922      8.72621     13.45637        -0.070291     -0.031338     -0.057586
Pd      9.51859      9.50950     15.13003         0.028221      0.032619      0.076511
Pd      8.90279     13.60532     11.93671        -0.017862      0.006690      0.047529
