15
# total energy = -112.41966499 eVC      1.38608      0.00036     10.00000        -0.001911     -0.027976      0.000000
C      5.34511      3.88835     10.00000         0.001911      0.027976      0.000000
C      6.03812     -2.68495     10.00000        -0.016405     -0.015840     -0.000000
C      0.69307      6.57366     10.00000         0.016405      0.015840      0.000000
C      6.03857      2.68880     10.00000        -0.009177     -0.027188      0.000000
C      0.69262      1.19990     10.00000         0.009177      0.027188      0.000000
O      1.37805      2.38771     10.00000        -0.005467     -0.015600      0.000000
O      5.35314      1.50100     10.00000         0.005467      0.015600      0.000000
O      3.97404      3.88799     10.00000         0.015816     -0.002840     -0.000000
O      2.75715      0.00071     10.00000        -0.015816      0.002840      0.000000
O      1.37847      5.38625     10.00000        -0.007834      0.013968      0.000000
O      5.35272     -1.49754     10.00000         0.007834     -0.013968     -0.000000
Ir      3.36560      1.94435     10.00000         0.000000      0.000000      0.000000
Ir      3.36560     -1.94266     10.00000         0.000000      0.000000      0.000000
Ir     -0.00000      3.88701     10.00000         0.000000      0.000000      0.000000
