152
# total energy = -1022.83577166 eVH     10.35389      5.87395      7.64558         0.476682      0.029637      0.918086
H     10.62451     15.10445      7.64558        -0.039965      0.035769      0.757746
H     10.62451      5.87395     13.33282         0.141885      0.116322     -0.602071
H     10.35389     15.10445     13.33282        -0.268166     -0.075976     -0.567016
H      7.64558     10.35389      5.87395         0.335919     -0.038548      0.191347
H      7.64558     10.62451     15.10445         0.615670     -0.185437     -0.140483
H     13.33282     10.62451      5.87395        -0.863810     -0.328687      0.165319
H     13.33282     10.35389     15.10445        -0.470272     -0.095173     -0.055382
H      5.87395      7.64558     10.35389         0.120658      1.131094     -0.140580
H     15.10445      7.64558     10.62451        -0.168061      0.402525     -0.086152
H      5.87395     13.33282     10.62451         0.143612     -0.407064     -0.070976
H     15.10445     13.33282     10.35389        -0.077251     -0.966395     -0.205158
H      5.87395     10.35389      7.64558         0.129736      0.036820      0.483062
H     15.10445     10.62451      7.64558         0.132139     -0.221458      0.797016
H      5.87395     10.62451     13.33282         0.270805     -0.028724     -0.394817
H     15.10445     10.35389     13.33282        -0.144114      0.009734     -0.631263
H     10.35389      7.64558      5.87395         0.073437      0.834615      0.117834
H     10.62451      7.64558     15.10445         0.029114      0.556443     -0.142943
H     10.62451     13.33282      5.87395         0.077356     -0.602468      0.183162
H     10.35389     13.33282     15.10445        -0.251814     -0.891203     -0.110593
H      7.64558      5.87395     10.35389         0.530137      0.035002     -0.141228
H      7.64558     15.10445     10.62451         0.907500     -0.210922      0.305249
H     13.33282      5.87395     10.62451        -0.435057      0.187332     -0.059017
H     13.33282     15.10445     10.35389        -1.004367     -0.099374      0.241767
H     12.45634     12.45634     19.01126         0.267675      0.257828     -0.223877
H     19.01126     19.01126     19.01126        -0.247600     -0.234930     -0.262552
H     19.01126     12.45634     12.45634        -0.241631      0.270407      0.238663
H     12.45634     19.01126     12.45634         0.210623     -0.283727      0.252912
C     10.35284      5.61067      6.59456        -0.129294     -0.426810     -0.434263
C     10.62556     15.36773      6.59456         0.020147      0.348078     -1.136443
C     10.62556      5.61067     14.38384        -0.023607     -0.222865      0.718420
C     10.35284     15.36773     14.38384         0.194038      0.770623      0.127621
C      6.59456     10.35284      5.61067        -0.428878     -0.041351     -0.186463
C      6.59456     10.62556     15.36773        -0.786680      0.147233      0.349885
C     14.38384     10.62556      5.61067         0.655818      0.278604     -0.365004
C     14.38384     10.35284     15.36773         0.746459     -0.124042      0.432922
C      5.61067      6.59456     10.35284        -0.428737     -0.773305      0.263341
C     15.36773      6.59456     10.62556         0.194796     -0.469071      0.046684
C      5.61067     14.38384     10.62556        -0.254877      0.383605     -0.022666
C     15.36773     14.38384     10.35284         0.400562      0.148209      0.194860
C      5.61067     10.35284      6.59456        -0.307853     -0.011747     -0.892334
C     15.36773     10.62556      6.59456         0.563180     -0.143227     -1.233708
C      5.61067     10.62556     14.38384        -0.465086      0.007409      0.910081
C     15.36773     10.35284     14.38384         0.533184     -0.178468      1.256065
C     10.35284      6.59456      5.61067        -0.033128     -0.919218     -0.681717
C     10.62556      6.59456     15.36773         0.041940     -0.664126      0.300445
C     10.62556     14.38384      5.61067         0.040569      1.266788     -0.695878
C     10.35284     14.38384     15.36773         0.089198      0.594480      0.668122
C      6.59456      5.61067     10.35284        -0.232477     -0.894832      0.127878
C      6.59456     15.36773     10.62556        -1.731155      0.496900      0.041690
C     14.38384      5.61067     10.62556         0.577026     -0.221485     -0.006694
C     14.38384     15.36773     10.35284         0.183342      0.547811     -0.243499
C     10.40319      3.19606      7.29314         0.017514      0.930348     -0.254179
C     10.35913      4.25547      6.23373        -0.052628     -0.360105      0.629573
C      0.08601      7.29314      7.29314        -0.009058     -0.236094     -0.471333
C      0.13007      6.23373      6.23373         0.000092      0.115351      0.203926
C      0.08601      3.19606      3.19606        -0.016878      0.653467      0.178786
C      0.13007      4.25547      4.25547        -0.090324     -0.197458     -0.171218
C     10.40319      7.29314      3.19606        -0.000424     -0.694347      0.525374
C     10.35913      6.23373      4.25547        -0.004711      0.530333     -0.379146
C      7.29314     10.40319      3.19606        -0.350403      0.022682      0.850632
C      6.23373     10.35913      4.25547         0.214502      0.015944     -0.145485
C      7.29314      0.08601      7.29314        -0.309506     -0.046810     -0.268803
C      6.23373      0.13007      6.23373         0.264327     -0.059538      0.293798
C      3.19606      0.08601      3.19606         0.433228     -0.052621      1.307627
C      4.25547      0.13007      4.25547        -0.117690     -0.027309     -0.459485
C      3.19606     10.40319      7.29314         0.716633      0.015194     -0.262676
C      4.25547     10.35913      6.23373        -0.138047      0.035571      0.111634
C      3.19606      7.29314     10.40319         0.598610     -1.261303      0.027016
C      4.25547      6.23373     10.35913        -0.718526      0.830978      0.047888
C      7.29314      7.29314      0.08601        -0.661062     -0.170535     -0.022728
C      6.23373      6.23373      0.13007         0.173036      0.268572     -0.009770
C      3.19606      3.19606      0.08601         0.241674      0.251732     -0.019619
C      4.25547      4.25547      0.13007        -0.051734     -0.037394      0.012354
C      7.29314      3.19606     10.40319        -0.373074      0.782706      0.016731
C      6.23373      4.25547     10.35913         0.866853     -0.165887      0.013490
O     10.43466      3.58206      8.50569        -0.050680      0.027251      0.314138
O     10.54374     17.39634      8.50569        -0.024250     -0.182996      0.605544
O     10.54374      3.58206     12.47271         0.055594      0.059876     -0.321446
O     10.43466     17.39634     12.47271        -0.024932     -0.123053     -0.578624
O      8.50569     10.43466      3.58206         0.386682     -0.022852     -0.010751
O      8.50569     10.54374     17.39634         0.470329      0.053872     -0.142337
O     12.47271     10.54374      3.58206        -0.280649      0.050301     -0.081587
O     12.47271     10.43466     17.39634        -0.857821      0.021867     -0.223339
O      3.58206      8.50569     10.43466         0.039976      0.913378      0.038440
O     17.39634      8.50569     10.54374        -0.038024      0.337613      0.078419
O      3.58206     12.47271     10.54374         0.063929     -0.420158      0.063303
O     17.39634     12.47271     10.43466        -0.169598     -0.770417      0.018859
O      3.58206     10.43466      8.50569        -0.057554     -0.066180      0.221893
O     17.39634     10.54374      8.50569        -0.136054      0.042321      0.458207
O      3.58206     10.54374     12.47271        -0.025459     -0.050623     -0.892850
O     17.39634     10.43466     12.47271        -0.197808      0.041681     -0.760733
O     10.43466      8.50569      3.58206         0.044419      0.687767      0.193609
O     10.54374      8.50569     17.39634         0.054028      0.430082     -0.077600
O     10.54374     12.47271      3.58206        -0.010564     -0.733226      0.228977
O     10.43466     12.47271     17.39634         0.051649     -0.862814     -0.276785
O      8.50569      3.58206     10.43466         0.494280      0.078762     -0.039078
O      8.50569     17.39634     10.54374         0.658060     -0.253531     -0.061837
O     12.47271      3.58206     10.54374        -0.487649      0.163296      0.039797
O     12.47271     17.39634     10.43466        -0.524413     -0.038898     -0.030860
O     11.90042     11.90042     19.56718        -0.304547     -0.311724      0.262843
O     19.56718     19.56718     19.56718         0.287468      0.271769      0.321257
O     19.56718     11.90042     11.90042         0.280460     -0.330288     -0.243853
O     11.90042     19.56718     11.90042        -0.227760      0.291494     -0.240731
O      9.45224      1.03696      9.45224        -0.074448      0.050385     -0.066270
O      1.03696      9.45224      9.45224         0.057307     -0.145410     -0.056468
O      1.03696      1.03696      1.03696         0.043518      0.032962      0.188099
O      9.45224      9.45224      1.03696        -0.039461     -0.091545      0.123169
Zr     10.48920      2.52580     10.48920        -0.007118     -0.075154     -0.022027
Zr     10.48920     18.45260     10.48920         0.059542      0.305896     -0.070728
Zr     10.48920     10.48920      2.52580        -0.100460      0.009281     -0.375112
Zr     10.48920     10.48920     18.45260        -0.140127     -0.165808      0.327350
Zr      2.52580     10.48920     10.48920        -0.347208      0.317200     -0.468085
Zr     18.45260     10.48920     10.48920         0.236929      0.039084     -0.264126
Pd      9.04505     10.27181     13.34615        -0.015435     -0.001436     -0.004293
Pd     10.57960      9.72499     10.99851         0.018985      0.004832     -0.071024
Pd     13.76495      8.55428     12.68096         0.025753      0.000167      0.005880
Pd     11.00027     11.08539     15.04478        -0.000151     -0.035588     -0.058383
Pd     12.86844     11.20354     13.05072         0.023176      0.020016      0.001094
Pd     14.97570     10.93185     11.34499         0.000174      0.020683     -0.011160
Pd      6.66666      7.43389     12.33522        -0.006421      0.021641      0.009578
Pd      9.21566      7.26731     10.14584         0.006945      0.011369     -0.024500
Pd      9.27660      7.62663     12.81062        -0.000923     -0.012879     -0.014109
Pd     11.69925      7.29801     11.46975         0.004079      0.001496     -0.011075
Pd     11.37149      7.99923      8.86005         0.039180     -0.006667      0.006307
Pd      7.26044     11.84066     11.96698         0.002167     -0.001075     -0.024271
Pd      8.90654     14.67831      9.34102         0.037760      0.030607      0.021505
Pd      8.41532     12.67064     14.33185         0.010821     -0.018344     -0.035899
Pd     13.50412     14.07361      8.56828         0.094922      0.039616     -0.039696
Pd     10.97133     13.32587      8.52083         0.087301      0.035918      0.036093
Pd     14.08006     11.50721      8.92417         0.001043      0.051269     -0.007344
Pd      8.63111     14.11141     12.10362         0.021146     -0.021775      0.011329
Pd     12.24489     13.75684     14.02932        -0.025663     -0.016546     -0.014185
Pd     11.17413     14.42256     11.14383         0.014699     -0.014603      0.063003
Pd     14.05729     13.55803     12.17055        -0.011136      0.021271     -0.004792
Pd     12.31237     12.12795     10.68680        -0.005567     -0.006621      0.006395
Pd     12.64097     12.30628      6.71586         0.034386      0.064680     -0.003784
Pd     13.63505      8.93118      7.91859         0.052529     -0.000977     -0.032846
Pd      6.85924      8.46809      8.86289         0.017341      0.022237     -0.005377
Pd      5.52517      9.93328     11.27394         0.014238      0.043100     -0.054562
Pd      9.12730      9.76503      8.29789         0.027917     -0.033104     -0.003013
Pd      8.83324      7.24953      7.48752        -0.025472     -0.015658     -0.044842
Pd      9.52406     12.08185     10.43535         0.025236      0.006507      0.017346
Pd     11.51788     10.70619      8.58257         0.017493      0.020683     -0.020330
Pd     11.22111      9.26069      6.43837         0.039081     -0.047607     -0.041457
Pd      9.87755     11.57015      6.37074         0.040646     -0.032031     -0.021016
Ir     11.36493      9.12348     13.37314        -0.021287      0.010173     -0.009073
Ir     13.06978      9.47803     10.38721        -0.006676     -0.041114      0.031627
Ir     10.54079     12.35942     12.71909        -0.018683      0.012085      0.029840
Ir      7.13512     10.99190      9.51125         0.016970      0.001659      0.019604
Ir      8.40641     12.46595      8.19389         0.004067      0.007163     -0.005689
Ir      8.06415      9.31541     11.12475         0.000036      0.001281      0.012660
