152
# total energy = -1022.89188313 eVH     10.35389      5.87395      7.64558         0.472033      0.026201      0.873596
H     10.62451     15.10445      7.64558        -0.050880      0.037055      0.771516
H     10.62451      5.87395     13.33282         0.146258      0.116991     -0.610894
H     10.35389     15.10445     13.33282        -0.247872     -0.083025     -0.558312
H      7.64558     10.35389      5.87395         0.329820     -0.033045      0.189615
H      7.64558     10.62451     15.10445         0.619991     -0.195108     -0.139978
H     13.33282     10.62451      5.87395        -0.830665     -0.311321      0.174551
H     13.33282     10.35389     15.10445        -0.450034     -0.083742     -0.066674
H      5.87395      7.64558     10.35389         0.137373      1.097832     -0.179715
H     15.10445      7.64558     10.62451        -0.170088      0.406259     -0.086386
H      5.87395     13.33282     10.62451         0.144040     -0.410478     -0.072879
H     15.10445     13.33282     10.35389        -0.077665     -0.969750     -0.176057
H      5.87395     10.35389      7.64558         0.130954      0.045019      0.486174
H     15.10445     10.62451      7.64558         0.106272     -0.192674      0.843099
H      5.87395     10.62451     13.33282         0.260781     -0.033700     -0.394231
H     15.10445     10.35389     13.33282        -0.152337      0.013615     -0.623550
H     10.35389      7.64558      5.87395         0.060766      0.896011      0.112483
H     10.62451      7.64558     15.10445         0.026573      0.536606     -0.146765
H     10.62451     13.33282      5.87395         0.043783     -0.593387      0.186877
H     10.35389     13.33282     15.10445        -0.255863     -0.898171     -0.111832
H      7.64558      5.87395     10.35389         0.521407      0.051043     -0.128060
H      7.64558     15.10445     10.62451         0.920310     -0.213176      0.273152
H     13.33282      5.87395     10.62451        -0.439876      0.184978     -0.059623
H     13.33282     15.10445     10.35389        -0.998122     -0.106150      0.245360
H     12.45634     12.45634     19.01126         0.265718      0.257671     -0.225433
H     19.01126     19.01126     19.01126        -0.247263     -0.235109     -0.262307
H     19.01126     12.45634     12.45634        -0.239879      0.271189      0.239275
H     12.45634     19.01126     12.45634         0.211823     -0.281918      0.252718
C     10.35284      5.61067      6.59456        -0.109026     -0.451408     -0.355919
C     10.62556     15.36773      6.59456         0.022649      0.352465     -1.154550
C     10.62556      5.61067     14.38384        -0.032298     -0.213914      0.731835
C     10.35284     15.36773     14.38384         0.164813      0.781502      0.167758
C      6.59456     10.35284      5.61067        -0.406268     -0.039398     -0.176192
C      6.59456     10.62556     15.36773        -0.792745      0.154500      0.349963
C     14.38384     10.62556      5.61067         0.573587      0.291822     -0.378919
C     14.38384     10.35284     15.36773         0.722267     -0.119209      0.431083
C      5.61067      6.59456     10.35284        -0.419779     -0.720660      0.294368
C     15.36773      6.59456     10.62556         0.196451     -0.465402      0.047361
C      5.61067     14.38384     10.62556        -0.249739      0.383202     -0.027444
C     15.36773     14.38384     10.35284         0.410018      0.138168      0.166630
C      5.61067     10.35284      6.59456        -0.306869     -0.017152     -0.887695
C     15.36773     10.62556      6.59456         0.580275     -0.170834     -1.237389
C      5.61067     10.62556     14.38384        -0.448549      0.006142      0.857391
C     15.36773     10.35284     14.38384         0.518168     -0.184560      1.246523
C     10.35284      6.59456      5.61067        -0.039312     -0.934613     -0.657059
C     10.62556      6.59456     15.36773         0.042089     -0.633933      0.286157
C     10.62556     14.38384      5.61067         0.051533      1.220847     -0.681589
C     10.35284     14.38384     15.36773         0.110036      0.610958      0.644451
C      6.59456      5.61067     10.35284        -0.199311     -0.878301      0.126857
C      6.59456     15.36773     10.62556        -1.710311      0.486211      0.048176
C     14.38384      5.61067     10.62556         0.591598     -0.230625     -0.007683
C     14.38384     15.36773     10.35284         0.121507      0.564107     -0.246241
C     10.40319      3.19606      7.29314         0.014914      0.893783     -0.256498
C     10.35913      4.25547      6.23373        -0.057045     -0.373932      0.599982
C      0.08601      7.29314      7.29314        -0.008916     -0.242388     -0.470320
C      0.13007      6.23373      6.23373         0.003614      0.114977      0.206732
C      0.08601      3.19606      3.19606        -0.016580      0.652076      0.186594
C      0.13007      4.25547      4.25547        -0.088427     -0.198465     -0.170595
C     10.40319      7.29314      3.19606        -0.002622     -0.695280      0.524787
C     10.35913      6.23373      4.25547        -0.015081      0.490445     -0.434931
C      7.29314     10.40319      3.19606        -0.337893      0.023833      0.880149
C      6.23373     10.35913      4.25547         0.213549      0.013661     -0.143769
C      7.29314      0.08601      7.29314        -0.310324     -0.045453     -0.281462
C      6.23373      0.13007      6.23373         0.273347     -0.057886      0.300430
C      3.19606      0.08601      3.19606         0.454078     -0.051362      1.276588
C      4.25547      0.13007      4.25547        -0.113969     -0.027901     -0.462707
C      3.19606     10.40319      7.29314         0.699520      0.013801     -0.267108
C      4.25547     10.35913      6.23373        -0.136071      0.030853      0.103748
C      3.19606      7.29314     10.40319         0.608387     -1.272158      0.022319
C      4.25547      6.23373     10.35913        -0.705987      0.852592      0.055751
C      7.29314      7.29314      0.08601        -0.649428     -0.174983     -0.021445
C      6.23373      6.23373      0.13007         0.174851      0.266535     -0.007123
C      3.19606      3.19606      0.08601         0.242499      0.254083     -0.019176
C      4.25547      4.25547      0.13007        -0.056928     -0.037111      0.011016
C      7.29314      3.19606     10.40319        -0.370709      0.817456      0.014311
C      6.23373      4.25547     10.35913         0.888006     -0.157388      0.008080
O     10.43466      3.58206      8.50569        -0.049428      0.036826      0.327412
O     10.54374     17.39634      8.50569        -0.024241     -0.179863      0.600343
O     10.54374      3.58206     12.47271         0.054379      0.059601     -0.323219
O     10.43466     17.39634     12.47271        -0.022946     -0.126093     -0.584814
O      8.50569     10.43466      3.58206         0.372859     -0.025618     -0.018640
O      8.50569     10.54374     17.39634         0.471892      0.052326     -0.142324
O     12.47271     10.54374      3.58206        -0.299754      0.046241     -0.068386
O     12.47271     10.43466     17.39634        -0.851174      0.018949     -0.227524
O      3.58206      8.50569     10.43466         0.045714      0.931152      0.037237
O     17.39634      8.50569     10.54374        -0.040944      0.340349      0.077843
O      3.58206     12.47271     10.54374         0.062820     -0.422586      0.064298
O     17.39634     12.47271     10.43466        -0.171156     -0.789803      0.023204
O      3.58206     10.43466      8.50569        -0.055485     -0.066611      0.225521
O     17.39634     10.54374      8.50569        -0.136161      0.043689      0.464573
O      3.58206     10.54374     12.47271        -0.011763     -0.050773     -0.885031
O     17.39634     10.43466     12.47271        -0.197884      0.046384     -0.773030
O     10.43466      8.50569      3.58206         0.045993      0.679276      0.189292
O     10.54374      8.50569     17.39634         0.054042      0.441061     -0.081111
O     10.54374     12.47271      3.58206        -0.007761     -0.738077      0.225871
O     10.43466     12.47271     17.39634         0.047194     -0.847877     -0.271953
O      8.50569      3.58206     10.43466         0.485663      0.070183     -0.037874
O      8.50569     17.39634     10.54374         0.650825     -0.252530     -0.060364
O     12.47271      3.58206     10.54374        -0.482373      0.163139      0.039439
O     12.47271     17.39634     10.43466        -0.525749     -0.034575     -0.028181
O     11.90042     11.90042     19.56718        -0.303562     -0.312084      0.264477
O     19.56718     19.56718     19.56718         0.286335      0.272425      0.320979
O     19.56718     11.90042     11.90042         0.276847     -0.330312     -0.243576
O     11.90042     19.56718     11.90042        -0.231323      0.289944     -0.241975
O      9.45224      1.03696      9.45224        -0.075082      0.047847     -0.066805
O      1.03696      9.45224      9.45224         0.051764     -0.146338     -0.060490
O      1.03696      1.03696      1.03696         0.039452      0.036293      0.188489
O      9.45224      9.45224      1.03696        -0.042288     -0.091765      0.123278
Zr     10.48920      2.52580     10.48920        -0.005784     -0.075641     -0.026750
Zr     10.48920     18.45260     10.48920         0.061095      0.305983     -0.071534
Zr     10.48920     10.48920      2.52580        -0.091405      0.010004     -0.376775
Zr     10.48920     10.48920     18.45260        -0.135269     -0.148645      0.331803
Zr      2.52580     10.48920     10.48920        -0.360846      0.312436     -0.451856
Zr     18.45260     10.48920     10.48920         0.248617      0.029795     -0.272814
Pd      9.02976     10.24568     13.32877        -0.008110     -0.013020      0.006669
Pd     10.57715      9.71712     10.94512         0.003613     -0.003725     -0.026021
Pd     13.77227      8.53474     12.69025        -0.002610      0.003793     -0.014079
Pd     11.00235     11.06314     15.00753        -0.003382     -0.017207      0.003058
Pd     12.87011     11.17402     13.00615         0.014668      0.008640      0.018453
Pd     15.00373     10.94489     11.34057        -0.002717      0.018667     -0.010026
Pd      6.65079      7.45207     12.34371        -0.003509      0.025247      0.000026
Pd      9.23719      7.27261     10.09454         0.004961      0.015023     -0.026161
Pd      9.27276      7.59651     12.77721         0.002282     -0.007914     -0.023680
Pd     11.70521      7.28969     11.45867        -0.001350     -0.000738     -0.015556
Pd     11.43479      7.99133      8.85738         0.024771     -0.003430     -0.014376
Pd      7.26153     11.83363     11.94775         0.010461      0.005995     -0.005017
Pd      8.91357     14.67321      9.33416         0.038140      0.007759      0.021434
Pd      8.41574     12.64587     14.32075        -0.006371     -0.008319      0.000034
Pd     13.56084     14.11705      8.53965         0.081694      0.021510     -0.041432
Pd     11.01664     13.34903      8.53105         0.079858      0.038243      0.038066
Pd     14.10615     11.54795      8.92941        -0.000372      0.018888     -0.010993
Pd      8.62497     14.10048     12.10134         0.009236     -0.005991      0.003723
Pd     12.24016     13.70700     14.03309        -0.006048      0.005086      0.003748
Pd     11.16723     14.42447     11.16620         0.031515     -0.011071      0.047713
Pd     14.04251     13.56093     12.16571        -0.008026      0.016095      0.000513
Pd     12.30454     12.13695     10.66974         0.010066     -0.022130      0.013334
Pd     12.69454     12.36525      6.70437         0.010946      0.031334     -0.015047
Pd     13.70625      8.94155      7.94567         0.027534      0.001285     -0.009431
Pd      6.87726      8.47610      8.84262         0.002204     -0.003149     -0.009780
Pd      5.52705      9.95593     11.22832        -0.007955      0.018263     -0.040005
Pd      9.17974      9.74294      8.31203         0.021260     -0.024598     -0.019498
Pd      8.81808      7.25605      7.42910        -0.033232     -0.023550     -0.025109
Pd      9.53291     12.08493     10.41804         0.019735      0.004065     -0.003292
Pd     11.57171     10.71271      8.53939         0.011591      0.011158     -0.022128
Pd     11.28793      9.20403      6.43565         0.035630     -0.013736     -0.013658
Pd      9.94332     11.52154      6.36794         0.028805     -0.022452     -0.006473
Ir     11.34926      9.11349     13.32826        -0.005826      0.009509     -0.019468
Ir     13.08567      9.49988     10.40148         0.016277      0.003567     -0.015095
Ir     10.52883     12.34177     12.70851         0.000505     -0.016836      0.018101
Ir      7.17309     10.99202      9.49082         0.071059      0.047079     -0.061849
Ir      8.45149     12.46066      8.16219         0.038706     -0.014585      0.025674
Ir      8.06601      9.29801     11.10984         0.029948     -0.012887      0.009650
