32
# total energy = -221.83454156 eVH      9.70980      7.74692      0.00000        -0.030499     -0.021466      0.000000
H      5.40840      1.03337      0.00000         0.030499      0.021466      0.000000
H      5.40840      7.74692      0.00000         0.030499     -0.021466     -0.000000
H      9.70980      1.03337      0.00000        -0.030499      0.021466      0.000000
H     13.86313      6.54262      0.00000        -0.014547      0.009751     -0.000000
H      1.25507      2.23767      0.00000         0.014547     -0.009751     -0.000000
H      1.25507      6.54262      0.00000         0.014547      0.009751      0.000000
H     13.86313      2.23767      0.00000        -0.014547     -0.009751      0.000000
C      8.71261      7.27517      0.00000         0.060336     -0.065204     -0.000000
C      6.40559      1.50512      0.00000        -0.060336      0.065204      0.000000
C      6.40559      7.27517      0.00000        -0.060336     -0.065204     -0.000000
C      8.71261      1.50512      0.00000         0.060336      0.065204     -0.000000
C     14.42402      5.60681     -0.00000         0.054377      0.011223     -0.000000
C      0.69418      3.17348     -0.00000        -0.054377     -0.011223      0.000000
C      0.69418      5.60681     -0.00000        -0.054377      0.011223      0.000000
C     14.42402      3.17348     -0.00000         0.054377     -0.011223     -0.000000
C      7.55910      8.05452     -0.00000        -0.000000      0.067281     -0.000000
C      7.55910      0.72577      0.00000        -0.000000     -0.067281      0.000000
C      7.55910      3.64445      0.00000        -0.000000     -0.057198     -0.000000
C      7.55910      5.13584      0.00000        -0.000000      0.057198      0.000000
C      1.40020      4.39015      0.00000        -0.045632     -0.000000     -0.000000
C     13.71800      4.39015      0.00000         0.045632      0.000000      0.000000
N      8.73199      5.91876     -0.00000         0.076391      0.008962      0.000000
N      6.38621      2.86153     -0.00000        -0.076391     -0.008962     -0.000000
N      6.38621      5.91876     -0.00000        -0.076391      0.008962     -0.000000
N      8.73199      2.86153     -0.00000         0.076391     -0.008962      0.000000
O     12.37002      4.39015      0.00000        -0.031099     -0.000000      0.000000
O      2.74818      4.39015     -0.00000         0.031099     -0.000000     -0.000000
Ir      4.48926      5.53746      0.00000         0.022668      0.015754      0.000000
Ir     10.62894      3.24283     -0.00000        -0.022668     -0.015754      0.000000
Ir     10.62894      5.53746      0.00000        -0.022668      0.015754     -0.000000
Ir      4.48926      3.24283      0.00000         0.022668     -0.015754      0.000000
