152
# total energy = -1024.43002857 eVH     10.35389      5.87395      7.64558         0.477505      0.026874      0.733864
H     10.62451     15.10445      7.64558         0.061702     -0.201750      0.631487
H     10.62451      5.87395     13.33282         0.093126      0.156819     -0.572100
H     10.35389     15.10445     13.33282        -0.482563     -0.031771     -0.748950
H      7.64558     10.35389      5.87395         0.345824      0.027258      0.159756
H      7.64558     10.62451     15.10445         0.921849     -0.249916      0.042190
H     13.33282     10.62451      5.87395        -0.793944     -0.135892      0.148672
H     13.33282     10.35389     15.10445        -0.900975     -0.426965      0.212736
H      5.87395      7.64558     10.35389         0.162077      0.734006     -0.333074
H     15.10445      7.64558     10.62451        -0.140238      0.381490     -0.018188
H      5.87395     13.33282     10.62451         0.157383     -0.517297     -0.105199
H     15.10445     13.33282     10.35389        -0.092793     -1.200895      0.093491
H      5.87395     10.35389      7.64558         0.136761      0.179588      0.521874
H     15.10445     10.62451      7.64558         0.010347      0.092135      1.043665
H      5.87395     10.62451     13.33282         0.075499     -0.041788     -0.457893
H     15.10445     10.35389     13.33282        -0.171166     -0.159807     -0.446639
H     10.35389      7.64558      5.87395         0.089641      1.025035      0.230945
H     10.62451      7.64558     15.10445         0.000532      0.269861     -0.161723
H     10.62451     13.33282      5.87395        -0.091435     -0.385725      0.319834
H     10.35389     13.33282     15.10445        -0.448222     -0.586512      0.000479
H      7.64558      5.87395     10.35389         0.522689      0.091247     -0.107372
H      7.64558     15.10445     10.62451         0.935172     -0.220232     -0.182327
H     13.33282      5.87395     10.62451        -0.593048      0.094016     -0.068056
H     13.33282     15.10445     10.35389        -0.594278     -0.061194      0.241245
H     12.45634     12.45634     19.01126         0.235652      0.278068     -0.237462
H     19.01126     19.01126     19.01126        -0.249456     -0.249304     -0.242016
H     19.01126     12.45634     12.45634        -0.267181      0.264827      0.219674
H     12.45634     19.01126     12.45634         0.237474     -0.266792      0.239719
C     10.35284      5.61067      6.59456        -0.215155     -0.691214      0.098706
C     10.62556     15.36773      6.59456        -0.050369      0.377863     -0.859759
C     10.62556      5.61067     14.38384        -0.005305     -0.053182      0.696218
C     10.35284     15.36773     14.38384         0.195341      0.698508      0.160813
C      6.59456     10.35284      5.61067        -0.349352     -0.015659     -0.308945
C      6.59456     10.62556     15.36773        -1.089030      0.258256      0.280777
C     14.38384     10.62556      5.61067         0.417169      0.385151     -0.692895
C     14.38384     10.35284     15.36773         1.068396      0.028266      0.244218
C      5.61067      6.59456     10.35284        -0.419559     -0.374277      0.365451
C     15.36773      6.59456     10.62556         0.188031     -0.491989      0.013540
C      5.61067     14.38384     10.62556        -0.200369      0.577506      0.000860
C     15.36773     14.38384     10.35284         0.337153      0.041273     -0.116701
C      5.61067     10.35284      6.59456        -0.331170     -0.090971     -1.021353
C     15.36773     10.62556      6.59456         0.916769     -0.347448     -0.969229
C      5.61067     10.62556     14.38384        -0.418033      0.027801      0.299930
C     15.36773     10.35284     14.38384         0.654041     -0.096637      1.073658
C     10.35284      6.59456      5.61067        -0.227786     -0.583951     -0.941922
C     10.62556      6.59456     15.36773         0.059326     -0.263670      0.043325
C     10.62556     14.38384      5.61067         0.062391      1.196852     -0.416789
C     10.35284     14.38384     15.36773         0.280433      0.155524      0.712561
C      6.59456      5.61067     10.35284        -0.181664     -0.734702      0.148266
C      6.59456     15.36773     10.62556        -1.223243      0.245025      0.166856
C     14.38384      5.61067     10.62556         1.062534     -0.297022      0.037565
C     14.38384     15.36773     10.35284        -0.468988      0.812338     -0.400391
C     10.40319      3.19606      7.29314        -0.033607      0.874971     -0.415704
C     10.35913      4.25547      6.23373         0.053834     -0.505493      0.549896
C      0.08601      7.29314      7.29314        -0.022181     -0.411042     -0.349632
C      0.13007      6.23373      6.23373        -0.023894      0.016205      0.101460
C      0.08601      3.19606      3.19606         0.010777      1.278462      0.191699
C      0.13007      4.25547      4.25547        -0.045941     -0.219858     -0.197395
C     10.40319      7.29314      3.19606        -0.014837     -1.050889      0.372356
C     10.35913      6.23373      4.25547         0.034488      0.476424     -0.675640
C      7.29314     10.40319      3.19606        -0.311351      0.031853      0.724017
C      6.23373     10.35913      4.25547         0.148773      0.069148     -0.106066
C      7.29314      0.08601      7.29314        -0.662431     -0.019836     -0.278578
C      6.23373      0.13007      6.23373         0.384187     -0.075460      0.541084
C      3.19606      0.08601      3.19606         1.013182     -0.004454      0.259434
C      4.25547      0.13007      4.25547        -0.164612     -0.036021     -0.537526
C      3.19606     10.40319      7.29314         0.362741     -0.010365     -0.952913
C      4.25547     10.35913      6.23373        -0.285514      0.089813      0.241630
C      3.19606      7.29314     10.40319         0.520926     -1.331979     -0.038211
C      4.25547      6.23373     10.35913        -0.548205      0.742647      0.113491
C      7.29314      7.29314      0.08601        -0.391260     -0.229957      0.000529
C      6.23373      6.23373      0.13007         0.154768      0.144415     -0.003503
C      3.19606      3.19606      0.08601         0.259371      0.250901     -0.017271
C      4.25547      4.25547      0.13007        -0.122720     -0.055490      0.006611
C      7.29314      3.19606     10.40319        -0.393542      0.639110      0.008024
C      6.23373      4.25547     10.35913         1.092322     -0.113195      0.056536
O     10.43466      3.58206      8.50569        -0.024717      0.045128      0.445716
O     10.54374     17.39634      8.50569        -0.006758     -0.111766      0.461638
O     10.54374      3.58206     12.47271         0.039719     -0.108965     -0.127175
O     10.43466     17.39634     12.47271        -0.058212     -0.045779     -0.475331
O      8.50569     10.43466      3.58206         0.286566     -0.031497     -0.036634
O      8.50569     10.54374     17.39634         0.724179      0.026606     -0.201530
O     12.47271     10.54374      3.58206        -0.792615     -0.037143      0.147223
O     12.47271     10.43466     17.39634        -0.282617     -0.028729      0.032093
O      3.58206      8.50569     10.43466         0.157331      1.096054     -0.035065
O     17.39634      8.50569     10.54374        -0.098769      0.434447      0.058597
O      3.58206     12.47271     10.54374         0.067562     -0.399107      0.036133
O     17.39634     12.47271     10.43466        -0.159703     -0.681302     -0.009475
O      3.58206     10.43466      8.50569         0.065981     -0.067553      0.802303
O     17.39634     10.54374      8.50569        -0.060358      0.046111      0.335937
O      3.58206     10.54374     12.47271        -0.012753      0.036933     -0.243271
O     17.39634     10.43466     12.47271        -0.256019      0.000394     -0.715481
O     10.43466      8.50569      3.58206         0.117935      0.830326      0.190601
O     10.54374      8.50569     17.39634         0.031674      0.608927     -0.145904
O     10.54374     12.47271      3.58206         0.007306     -1.010055      0.173378
O     10.43466     12.47271     17.39634        -0.040964     -0.924548     -0.205967
O      8.50569      3.58206     10.43466         0.561339      0.125316     -0.015505
O      8.50569     17.39634     10.54374         0.509219     -0.195334     -0.009759
O     12.47271      3.58206     10.54374        -0.475586      0.160211      0.058745
O     12.47271     17.39634     10.43466        -0.414598      0.025489     -0.005956
O     11.90042     11.90042     19.56718        -0.266765     -0.327625      0.256683
O     19.56718     19.56718     19.56718         0.278603      0.292129      0.282858
O     19.56718     11.90042     11.90042         0.300972     -0.300488     -0.202884
O     11.90042     19.56718     11.90042        -0.265984      0.284957     -0.249201
O      9.45224      1.03696      9.45224        -0.081107      0.047130     -0.058773
O      1.03696      9.45224      9.45224         0.042572     -0.153831     -0.116266
O      1.03696      1.03696      1.03696         0.025188      0.120542      0.195717
O      9.45224      9.45224      1.03696        -0.069870     -0.088280      0.116271
Zr     10.48920      2.52580     10.48920        -0.051171     -0.122628     -0.170175
Zr     10.48920     18.45260     10.48920         0.009713      0.216458     -0.022654
Zr     10.48920     10.48920      2.52580        -0.165927     -0.194401     -0.511776
Zr     10.48920     10.48920     18.45260        -0.000778     -0.006514      0.432624
Zr      2.52580     10.48920     10.48920        -0.366809      0.297228      0.185647
Zr     18.45260     10.48920     10.48920         0.206054      0.060026     -0.201850
Pd      8.31253      9.68117     13.23850        -0.008196      0.024816      0.006398
Pd     10.49268      9.44853     10.18748         0.025761      0.008497     -0.010702
Pd     13.02430      8.78199     12.46753        -0.012595     -0.023611     -0.013127
Pd     10.29380     10.78392     15.05744         0.013793      0.021808     -0.027791
Pd     12.81643     11.35524     13.56630         0.011386      0.035995      0.009287
Pd     14.84903     10.60928     11.36236         0.015529      0.002589     -0.001948
Pd      6.87821      7.51529     12.29097         0.017007     -0.013793      0.001098
Pd      9.21212      7.19828      9.44822        -0.000709     -0.016684      0.019388
Pd      9.57475      7.54164     12.19409        -0.005204     -0.000273      0.026049
Pd     11.75484      7.08724     10.80474         0.016504     -0.004033      0.001028
Pd     11.63173      7.82631      8.26482        -0.008367      0.013105     -0.026141
Pd      7.16376     11.67905     11.51526         0.008153     -0.008227      0.036955
Pd      9.29513     14.31812      9.25957        -0.004654     -0.022493     -0.003045
Pd      8.14325     12.29383     14.00719        -0.004062      0.002837      0.013913
Pd     14.24104     14.18418      8.34965        -0.005574      0.012542     -0.011948
Pd     11.74873     13.29043      8.79244        -0.006089      0.028648      0.030262
Pd     14.12937     11.61227      9.00196        -0.029010     -0.036579      0.031334
Pd      8.71452     13.98620     12.00847        -0.004077     -0.006669     -0.008961
Pd     12.22622     13.99635     13.95269         0.003454     -0.009308     -0.030499
Pd     11.41654     14.14601     11.29607        -0.020775     -0.042337     -0.006694
Pd     14.00913     13.29900     12.09484        -0.020897     -0.035689      0.017177
Pd     12.27392     11.51593     10.89593        -0.024184      0.002785      0.009974
Pd     13.02957     12.60101      6.59085        -0.010833      0.011204     -0.000840
Pd     13.96998      8.83636      7.57418        -0.018946     -0.002505      0.008694
Pd      6.96811      8.46401      8.36837         0.000773     -0.019963      0.015097
Pd      5.55160     10.03136     10.04782         0.028433     -0.018419      0.017010
Pd      9.40115      9.46469      7.44979         0.010287     -0.040942     -0.003558
Pd      8.47879      6.97768      6.85721        -0.012419     -0.006192     -0.014128
Pd      9.66155     11.94658     10.52759         0.047608      0.011398      0.024358
Pd     11.81178     10.61434      8.05277        -0.014872     -0.043481      0.002382
Pd     11.79201      8.92598      5.85483         0.000044      0.000529      0.007960
Pd     10.63096     11.33532      5.73272        -0.005115      0.009854      0.014933
Ir     10.76371      9.83523     12.69038         0.002360     -0.002838      0.030551
Ir     13.15160      9.24987      9.94838        -0.007480     -0.017162      0.005364
Ir     10.50203     12.28969     12.89627        -0.070228      0.029249     -0.034381
Ir      7.76299     10.98402      9.04971        -0.000949     -0.032597      0.023605
Ir      9.59718     12.05476      7.96466        -0.034420      0.028799     -0.001167
Ir      8.01161      9.17932     10.71415        -0.066031      0.041339      0.022864
