152
# total energy = -1022.51419307 eVH     10.35389      5.87395      7.64558         0.431140     -0.035679      1.036274
H     10.62451     15.10445      7.64558         0.028728     -0.060109      0.635105
H     10.62451      5.87395     13.33282         0.133331      0.109983     -0.627734
H     10.35389     15.10445     13.33282        -0.261967     -0.067908     -0.554612
H      7.64558     10.35389      5.87395         0.377731     -0.058413      0.191550
H      7.64558     10.62451     15.10445         0.623553     -0.139959     -0.113740
H     13.33282     10.62451      5.87395        -1.019675     -0.479205      0.000721
H     13.33282     10.35389     15.10445        -0.479498     -0.066806     -0.049742
H      5.87395      7.64558     10.35389         0.044469      1.246294     -0.085198
H     15.10445      7.64558     10.62451        -0.168609      0.395901     -0.076186
H      5.87395     13.33282     10.62451         0.144964     -0.386543     -0.066482
H     15.10445     13.33282     10.35389        -0.080263     -1.000396     -0.316890
H      5.87395     10.35389      7.64558         0.119251     -0.013185      0.410595
H     15.10445     10.62451      7.64558         0.108964     -0.103093      0.780286
H      5.87395     10.62451     13.33282         0.266259     -0.053827     -0.420586
H     15.10445     10.35389     13.33282        -0.175921      0.053049     -0.633016
H     10.35389      7.64558      5.87395         0.187270      0.916054      0.050691
H     10.62451      7.64558     15.10445         0.004338      0.704910     -0.110228
H     10.62451     13.33282      5.87395         0.316266     -0.518376      0.193394
H     10.35389     13.33282     15.10445        -0.184943     -0.925147     -0.119336
H      7.64558      5.87395     10.35389         0.487430      0.054308     -0.158855
H      7.64558     15.10445     10.62451         0.916635     -0.193102      0.243634
H     13.33282      5.87395     10.62451        -0.426090      0.193116     -0.068899
H     13.33282     15.10445     10.35389        -0.998873     -0.050780      0.264124
H     12.45634     12.45634     19.01126         0.272284      0.258648     -0.219346
H     19.01126     19.01126     19.01126        -0.249683     -0.235540     -0.261468
H     19.01126     12.45634     12.45634        -0.244041      0.273330      0.234966
H     12.45634     19.01126     12.45634         0.206563     -0.284765      0.257323
C     10.35284      5.61067      6.59456        -0.058951     -0.482202     -0.729499
C     10.62556     15.36773      6.59456         0.023050      0.332964     -0.908052
C     10.62556      5.61067     14.38384        -0.008773     -0.284038      0.742573
C     10.35284     15.36773     14.38384         0.222129      0.708445      0.073853
C      6.59456     10.35284      5.61067        -0.571766     -0.035854     -0.248927
C      6.59456     10.62556     15.36773        -0.860878      0.132074      0.406605
C     14.38384     10.62556      5.61067         1.038019      0.289276     -0.307798
C     14.38384     10.35284     15.36773         0.755928     -0.115115      0.423153
C      5.61067      6.59456     10.35284        -0.385336     -0.926463      0.207497
C     15.36773      6.59456     10.62556         0.201847     -0.480843      0.040181
C      5.61067     14.38384     10.62556        -0.248789      0.382040     -0.009111
C     15.36773     14.38384     10.35284         0.319091      0.335136      0.257316
C      5.61067     10.35284      6.59456        -0.333586      0.011610     -0.820618
C     15.36773     10.62556      6.59456         0.534579     -0.168215     -1.193686
C      5.61067     10.62556     14.38384        -0.507925      0.008969      1.078131
C     15.36773     10.35284     14.38384         0.544436     -0.196745      1.329789
C     10.35284      6.59456      5.61067        -0.007752     -1.116733     -0.714601
C     10.62556      6.59456     15.36773         0.055687     -0.887559      0.376880
C     10.62556     14.38384      5.61067        -0.038312      1.381354     -0.717784
C     10.35284     14.38384     15.36773         0.055151      0.646148      0.583810
C      6.59456      5.61067     10.35284        -0.095667     -0.901430      0.134061
C      6.59456     15.36773     10.62556        -1.725076      0.487974      0.055844
C     14.38384      5.61067     10.62556         0.556462     -0.225931      0.004848
C     14.38384     15.36773     10.35284         0.465085      0.505475     -0.215361
C     10.40319      3.19606      7.29314         0.017711      0.973988     -0.230051
C     10.35913      4.25547      6.23373        -0.035113     -0.290119      0.746233
C      0.08601      7.29314      7.29314        -0.010922     -0.223544     -0.462672
C      0.13007      6.23373      6.23373        -0.014614      0.145925      0.172831
C      0.08601      3.19606      3.19606        -0.023313      0.710779      0.150230
C      0.13007      4.25547      4.25547        -0.104511     -0.192695     -0.158683
C     10.40319      7.29314      3.19606        -0.003231     -0.651186      0.485593
C     10.35913      6.23373      4.25547         0.001823      0.565498     -0.313493
C      7.29314     10.40319      3.19606        -0.403337      0.017957      0.902166
C      6.23373     10.35913      4.25547         0.238668     -0.007925     -0.180718
C      7.29314      0.08601      7.29314        -0.306288     -0.053766     -0.240705
C      6.23373      0.13007      6.23373         0.291987     -0.090239      0.246375
C      3.19606      0.08601      3.19606         0.333675     -0.058220      1.350551
C      4.25547      0.13007      4.25547        -0.192406     -0.013807     -0.439750
C      3.19606     10.40319      7.29314         0.748500      0.017741     -0.258225
C      4.25547     10.35913      6.23373        -0.118395      0.039436      0.122467
C      3.19606      7.29314     10.40319         0.528584     -1.236260      0.040885
C      4.25547      6.23373     10.35913        -0.755601      0.714166      0.026599
C      7.29314      7.29314      0.08601        -0.647487     -0.191390     -0.023633
C      6.23373      6.23373      0.13007         0.173423      0.258374     -0.013004
C      3.19606      3.19606      0.08601         0.257558      0.264559     -0.019015
C      4.25547      4.25547      0.13007        -0.055002     -0.034183      0.013626
C      7.29314      3.19606     10.40319        -0.343631      0.704210      0.029805
C      6.23373      4.25547     10.35913         0.715465     -0.216279      0.029191
O     10.43466      3.58206      8.50569        -0.054999      0.023262      0.282817
O     10.54374     17.39634      8.50569        -0.020383     -0.194535      0.616080
O     10.54374      3.58206     12.47271         0.067220      0.045802     -0.290321
O     10.43466     17.39634     12.47271        -0.023703     -0.127281     -0.556032
O      8.50569     10.43466      3.58206         0.391562     -0.008596     -0.012666
O      8.50569     10.54374     17.39634         0.465106      0.059118     -0.144394
O     12.47271     10.54374      3.58206        -0.215792      0.067991     -0.117197
O     12.47271     10.43466     17.39634        -0.849812      0.026491     -0.209022
O      3.58206      8.50569     10.43466         0.034049      0.885102      0.041945
O     17.39634      8.50569     10.54374        -0.029598      0.354440      0.080612
O      3.58206     12.47271     10.54374         0.062984     -0.431998      0.059163
O     17.39634     12.47271     10.43466        -0.156904     -0.716074      0.011698
O      3.58206     10.43466      8.50569        -0.055031     -0.061300      0.226300
O     17.39634     10.54374      8.50569        -0.134755      0.043030      0.440743
O      3.58206     10.54374     12.47271        -0.059855     -0.060960     -0.869082
O     17.39634     10.43466     12.47271        -0.194560      0.044313     -0.768956
O     10.43466      8.50569      3.58206         0.026080      0.672891      0.200228
O     10.54374      8.50569     17.39634         0.055095      0.396947     -0.069706
O     10.54374     12.47271      3.58206        -0.047210     -0.741390      0.250063
O     10.43466     12.47271     17.39634         0.062233     -0.848500     -0.279941
O      8.50569      3.58206     10.43466         0.494564      0.092916     -0.041335
O      8.50569     17.39634     10.54374         0.657811     -0.233776     -0.057201
O     12.47271      3.58206     10.54374        -0.511361      0.157636      0.041121
O     12.47271     17.39634     10.43466        -0.473745     -0.031594     -0.044529
O     11.90042     11.90042     19.56718        -0.308342     -0.310636      0.258840
O     19.56718     19.56718     19.56718         0.292482      0.274939      0.321349
O     19.56718     11.90042     11.90042         0.281194     -0.329632     -0.232072
O     11.90042     19.56718     11.90042        -0.220527      0.294403     -0.242324
O      9.45224      1.03696      9.45224        -0.070549      0.061620     -0.065644
O      1.03696      9.45224      9.45224         0.070473     -0.142580     -0.049949
O      1.03696      1.03696      1.03696         0.045747      0.030097      0.190166
O      9.45224      9.45224      1.03696        -0.034902     -0.085859      0.135412
Zr     10.48920      2.52580     10.48920        -0.000007     -0.071968     -0.027754
Zr     10.48920     18.45260     10.48920         0.030874      0.289463     -0.066139
Zr     10.48920     10.48920      2.52580        -0.067177     -0.032394     -0.367264
Zr     10.48920     10.48920     18.45260        -0.153682     -0.201060      0.299484
Zr      2.52580     10.48920     10.48920        -0.322717      0.345078     -0.483972
Zr     18.45260     10.48920     10.48920         0.213058      0.039788     -0.304751
Pd      9.04112     10.27707     13.46639         0.011169      0.004672     -0.044914
Pd     10.63929      9.72400     11.23009        -0.012296     -0.004002     -0.056181
Pd     13.76932      8.53628     12.80139        -0.003593      0.004864     -0.026026
Pd     11.01576     11.13337     15.10344        -0.004653     -0.014027     -0.017562
Pd     12.81806     11.15756     13.04992         0.012827      0.013614      0.010741
Pd     15.00157     10.81506     11.37768        -0.027890      0.041093     -0.007717
Pd      6.67922      7.40515     12.31262         0.004282      0.004195      0.003882
Pd      9.29120      7.34082     10.24499        -0.041181     -0.038570     -0.018831
Pd      9.24641      7.64415     12.90939         0.008277      0.002987     -0.024390
Pd     11.72194      7.26531     11.62122        -0.006542     -0.002770     -0.035660
Pd     11.49022      7.83422      8.94951        -0.078627      0.084182     -0.016954
Pd      7.21502     11.83844     12.06250         0.010948     -0.007099     -0.026079
Pd      8.92305     14.65129      9.33559        -0.019732      0.001475     -0.003205
Pd      8.44271     12.73237     14.35350        -0.009421     -0.021383     -0.010635
Pd     13.22297     13.94045      8.69827         0.055323      0.025194     -0.036309
Pd     10.77934     13.08859      8.44226         0.035797      0.069112      0.002103
Pd     14.03983     11.40574      9.00754         0.031116      0.034534     -0.046112
Pd      8.64526     14.09426     12.07450        -0.009758     -0.004152      0.005029
Pd     12.23247     13.74593     13.97690         0.005996      0.015611      0.016332
Pd     11.15981     14.36930     11.03975        -0.010488      0.003479      0.012657
Pd     14.05621     13.43486     12.13376         0.009698      0.042572      0.021354
Pd     12.24694     12.06647     10.68493         0.042531      0.040903      0.010084
Pd     12.48238     11.96880      6.85240         0.020922      0.091828     -0.050314
Pd     13.58147      8.97994      7.86851        -0.012416     -0.032660      0.029923
Pd      6.94292      8.40292      8.96269        -0.043948      0.030617     -0.034199
Pd      5.51420      9.86785     11.35256         0.007853      0.003906     -0.015057
Pd      8.91434      9.93597      8.07262         0.086130     -0.055929      0.090551
Pd      9.04337      7.40076      7.58031        -0.084465     -0.045128     -0.021077
Pd      9.41074     11.99365     10.44720         0.051331      0.017733      0.014817
Pd     11.34576     10.48267      8.79330         0.032288      0.065980     -0.065354
Pd     11.08486      9.37020      6.46561         0.016200     -0.001898      0.011951
Pd      9.68960     11.73547      6.25043         0.014975     -0.032937      0.028617
Ir     11.37339      9.07180     13.56829        -0.001854      0.008730     -0.047162
Ir     13.06972      9.36884     10.45230         0.011308      0.001175     -0.005997
Ir     10.51844     12.34116     12.70547         0.004958      0.011166     -0.013087
Ir      7.02939     10.96867      9.59881        -0.007143     -0.012302     -0.002448
Ir      8.19484     12.46818      8.20728         0.047690      0.005989     -0.010014
Ir      8.09455      9.36231     11.19551         0.005653     -0.014067     -0.020582
