38
# total energy = -253.15349204 eVPd     13.29974      8.56526      8.00272         0.741310     -0.032394      0.076823
Pd      8.75241     13.98897     11.91923        -0.262244      0.492601     -0.117192
Pd     12.19175     11.08608     10.65127        -0.458249     -0.333083     -0.113005
Pd     14.46772     10.70243     11.98876         0.589655     -0.169745      0.367360
Pd     11.02742      8.94941      6.66259        -0.371194      0.153396     -0.673772
Pd      7.55730      7.42677      9.38781        -0.170989     -0.403634     -0.375036
Ir      9.88850     11.54029     11.97553         0.084421      0.200024      0.225522
Ir     13.32561      8.63026     10.69993         0.200422     -0.591070      0.010032
Ir     12.18339     11.01409      7.93184         0.163350      0.832649     -0.028703
Ir      8.76380     13.88397      9.22780         0.503476     -0.918659      0.137003
Ir     11.01456      9.10115     12.03219         0.088025     -0.128848      0.154931
Ir      8.72365      9.40698      7.98667        -0.297704      0.080797     -0.386215
Ir     13.31057     13.05287      9.25153        -0.585574     -0.620779      0.198967
Ir     11.03278     13.43398      7.90106         0.020226     -0.692760      0.723380
Ir     14.43368     10.62676      9.31237        -1.043880      0.158980     -0.334525
Ir      9.84974      7.03276     10.74224         0.151313     -0.548262     -0.083514
Ir      7.61620     11.84312      7.95150         0.620370     -0.691864      0.785818
Ir      9.86430      6.99788      8.07533         0.270894      0.784393      1.308923
Ir     11.03295     13.56886     13.25883         0.694314     -1.337537     -0.565309
Ir     12.13262      6.68026     12.09546        -0.193810      1.088632     -0.594772
Ir      9.89273     11.46576      9.29318        -0.249371      0.006225     -0.143734
Ir     13.28909      8.71718     13.37147        -0.912860      0.130357     -0.482314
Ir     11.02703      9.03282      9.34473        -0.329643     -0.448984      0.033097
Ir     11.04052     13.54656     10.58090         0.256663      0.352850     -0.197163
Ir     13.31346     13.12259     11.92600        -1.400662      0.149631     -0.158244
Ir     12.18977     11.15438     13.35103        -0.230913      0.226238      0.731815
Ir      9.88565     11.38960      6.62627         0.202098      0.059604      1.084910
Ir     12.13637      6.61060      9.42039        -0.916237      0.629665      1.144733
Ir      7.57662      7.52569     12.06348         1.138127      0.712908      0.466267
Ir      7.58836     11.93612     10.62614        -0.609848     -0.034333     -0.119697
Ir     11.01892      9.16064     14.70016        -0.141064      0.505765     -1.014654
Ir      7.62687     11.99254     13.30147         0.536776     -1.304223     -0.626212
Ir      6.46421      9.87014      9.34659         1.028446      1.003066      0.261522
Ir      8.72022      9.55108     13.38582        -0.385900     -0.066920      0.448543
Ir      6.46174      9.95173     12.01589         1.223041      0.265361     -0.461808
Ir      9.85734      7.13094     13.41480        -0.130355      0.717466     -0.860218
Ir      9.89662     11.59192     14.64906         0.207366     -0.458891     -1.083381
Ir      8.73107      9.48390     10.68059        -0.029792      0.231375      0.259820
