152
# total energy = -1004.27380103 eVH     10.35389      5.87395      7.64558        -0.174337      0.223306      0.649835
H     10.62451     15.10445      7.64558        -0.260355     -0.135034      0.683767
H     10.62451      5.87395     13.33282         0.472259      0.032636     -0.984764
H     10.35389     15.10445     13.33282         0.064128     -0.192007     -0.539604
H      7.64558     10.35389      5.87395         0.417084      0.067697      0.114851
H      7.64558     10.62451     15.10445         0.776926      0.580017     -0.031377
H     13.33282     10.62451      5.87395        -0.450267     -0.026438      0.279296
H     13.33282     10.35389     15.10445        -0.726972     -0.180166      0.005435
H      5.87395      7.64558     10.35389         0.081340      1.915092      0.183518
H     15.10445      7.64558     10.62451        -0.094844      0.514886      0.173150
H      5.87395     13.33282     10.62451         0.210913     -0.718711      0.022769
H     15.10445     13.33282     10.35389         0.232343     -1.472467     -0.366710
H      5.87395     10.35389      7.64558         0.084311      0.065749      0.588291
H     15.10445     10.62451      7.64558        -0.187676      0.855466      1.342537
H      5.87395     10.62451     13.33282        -0.059365      0.449422     -1.310640
H     15.10445     10.35389     13.33282         0.135763     -0.166867     -0.762404
H     10.35389      7.64558      5.87395         0.268653      1.368858      0.159471
H     10.62451      7.64558     15.10445         0.544560      0.806007     -0.079204
H     10.62451     13.33282      5.87395        -0.588309     -0.829645      0.182762
H     10.35389     13.33282     15.10445        -0.158060     -0.535480     -0.307060
H      7.64558      5.87395     10.35389         1.132589     -0.263719     -0.122254
H      7.64558     15.10445     10.62451         0.746809     -0.208499     -0.028965
H     13.33282      5.87395     10.62451        -0.621472      0.116815      0.650564
H     13.33282     15.10445     10.35389        -0.397200     -0.030017     -0.143684
H     12.45634     12.45634     19.01126         0.273935      0.243210     -0.234555
H     19.01126     19.01126     19.01126        -0.267041     -0.272658     -0.214351
H     19.01126     12.45634     12.45634        -0.274086      0.252788      0.232921
H     12.45634     19.01126     12.45634         0.254212     -0.281433      0.228717
C     10.35284      5.61067      6.59456        -0.148366     -0.823066     -0.560045
C     10.62556     15.36773      6.59456         0.081656      0.365215     -0.260049
C     10.62556      5.61067     14.38384        -0.087924     -0.578954      0.683074
C     10.35284     15.36773     14.38384        -0.013489      0.243444      0.537723
C      6.59456     10.35284      5.61067        -0.668872      0.087326     -0.466300
C      6.59456     10.62556     15.36773        -0.996974      0.227715      0.729279
C     14.38384     10.62556      5.61067         0.818401      0.023958     -0.917113
C     14.38384     10.35284     15.36773         0.939486     -0.103200      0.461945
C      5.61067      6.59456     10.35284        -0.888346     -1.074559     -0.471359
C     15.36773      6.59456     10.62556         0.698465      0.051008     -0.253104
C      5.61067     14.38384     10.62556        -0.214544      0.832909     -0.001885
C     15.36773     14.38384     10.35284         0.292127      1.448254     -0.031427
C      5.61067     10.35284      6.59456        -0.278813      0.011572     -0.756738
C     15.36773     10.62556      6.59456         0.387009     -0.365989     -0.928247
C      5.61067     10.62556     14.38384        -0.347601     -0.004491      1.115497
C     15.36773     10.35284     14.38384         0.364885     -0.047669      0.871037
C     10.35284      6.59456      5.61067        -0.026186     -1.034134     -0.362873
C     10.62556      6.59456     15.36773         0.062679     -0.716655      0.560609
C     10.62556     14.38384      5.61067         0.115051      0.991926     -0.427647
C     10.35284     14.38384     15.36773        -0.021678      0.845047      0.429294
C      6.59456      5.61067     10.35284        -0.690507     -1.291857      0.119824
C      6.59456     15.36773     10.62556        -0.835488      0.151331      0.099263
C     14.38384      5.61067     10.62556        -0.066778     -0.523541     -0.357576
C     14.38384     15.36773     10.35284         0.110495      0.661796     -0.072588
C     10.40319      3.19606      7.29314         0.008179      0.679130     -0.796720
C     10.35913      4.25547      6.23373         0.011649     -0.540927      0.108491
C      0.08601      7.29314      7.29314        -0.021326     -1.015082     -0.259730
C      0.13007      6.23373      6.23373        -0.048023      0.400403      0.408573
C      0.08601      3.19606      3.19606         0.042631      1.156979      0.217510
C      0.13007      4.25547      4.25547        -0.001674     -0.415152     -0.443703
C     10.40319      7.29314      3.19606        -0.009623     -0.582311      0.214730
C     10.35913      6.23373      4.25547        -0.019514      0.127742     -0.697579
C      7.29314     10.40319      3.19606        -0.408487      0.020005      0.258992
C      6.23373     10.35913      4.25547         0.212512      0.066758     -0.098942
C      7.29314      0.08601      7.29314        -1.170083     -0.080049     -0.364727
C      6.23373      0.13007      6.23373         0.642646     -0.192162      0.356445
C      3.19606      0.08601      3.19606         1.175298     -0.016641      0.293760
C      4.25547      0.13007      4.25547        -0.571687     -0.156323     -0.228271
C      3.19606     10.40319      7.29314         0.548996      0.030985     -0.254803
C      4.25547     10.35913      6.23373        -0.219044      0.075717      0.202366
C      3.19606      7.29314     10.40319         0.303383     -0.568579      0.045263
C      4.25547      6.23373     10.35913        -1.035419      0.018088      0.170727
C      7.29314      7.29314      0.08601        -0.490789     -0.442045     -0.024006
C      6.23373      6.23373      0.13007         0.494056      0.303698      0.047791
C      3.19606      3.19606      0.08601         0.656218      0.447530     -0.024860
C      4.25547      4.25547      0.13007        -0.126262     -0.783968     -0.116701
C      7.29314      3.19606     10.40319        -0.405416      0.464511      0.052317
C      6.23373      4.25547     10.35913         0.606983     -0.728399      0.194915
O     10.43466      3.58206      8.50569         0.059786      0.196498      0.674044
O     10.54374     17.39634      8.50569         0.049394     -0.033327      0.305665
O     10.54374      3.58206     12.47271         0.004778     -0.043888     -0.226429
O     10.43466     17.39634     12.47271        -0.035400     -0.107221     -0.391193
O      8.50569     10.43466      3.58206         0.557134     -0.045161      0.141235
O      8.50569     10.54374     17.39634         0.864443     -0.085906     -0.169582
O     12.47271     10.54374      3.58206        -0.882061      0.140218      0.137675
O     12.47271     10.43466     17.39634        -0.620367      0.034709     -0.178253
O      3.58206      8.50569     10.43466         0.174067      0.667632     -0.028861
O     17.39634      8.50569     10.54374        -0.137350      0.630466      0.021390
O      3.58206     12.47271     10.54374         0.100412     -0.544971      0.054668
O     17.39634     12.47271     10.43466        -0.173292     -0.567584     -0.056099
O      3.58206     10.43466      8.50569         0.087389     -0.039912      0.388382
O     17.39634     10.54374      8.50569         0.051970      0.102603      0.326636
O      3.58206     10.54374     12.47271        -0.022825      0.032466     -0.238590
O     17.39634     10.43466     12.47271        -0.119776     -0.028681     -0.435951
O     10.43466      8.50569      3.58206        -0.039909      0.633131      0.181598
O     10.54374      8.50569     17.39634        -0.091817      0.811086     -0.170501
O     10.54374     12.47271      3.58206         0.116555     -0.943061      0.175692
O     10.43466     12.47271     17.39634         0.024260     -0.524537     -0.078459
O      8.50569      3.58206     10.43466         0.580919      0.152682     -0.052266
O      8.50569     17.39634     10.54374         0.600749     -0.167313      0.014409
O     12.47271      3.58206     10.54374        -0.752553      0.130488      0.010034
O     12.47271     17.39634     10.43466        -0.507235     -0.125400     -0.031785
O     11.90042     11.90042     19.56718        -0.326636     -0.264382      0.243957
O     19.56718     19.56718     19.56718         0.298200      0.325077      0.206034
O     19.56718     11.90042     11.90042         0.345968     -0.278874     -0.252736
O     11.90042     19.56718     11.90042        -0.280690      0.351890     -0.227787
O      9.45224      1.03696      9.45224        -0.028535      0.103675     -0.132582
O      1.03696      9.45224      9.45224         0.060277     -0.021069     -0.119434
O      1.03696      1.03696      1.03696         0.063615      0.099801      0.096375
O      9.45224      9.45224      1.03696        -0.037278     -0.026727      0.088685
Zr     10.48920      2.52580     10.48920        -0.094908     -0.255433      0.174914
Zr     10.48920     18.45260     10.48920         0.023068      0.055741      0.094443
Zr     10.48920     10.48920      2.52580        -0.320128     -0.257702     -0.388417
Zr     10.48920     10.48920     18.45260         0.185738     -0.017814      0.379816
Zr      2.52580     10.48920     10.48920        -0.135971     -0.048591     -0.069360
Zr     18.45260     10.48920     10.48920         0.108927     -0.053526      0.143547
Pd     12.70402      8.28509      9.73562        -0.033488     -0.015629     -0.007419
Pd      6.70444      9.61010     10.47883         0.023894      0.008259      0.020514
Pd      6.92114     11.77986     11.91821        -0.018011     -0.017046     -0.004226
Pd     12.23978     13.47364      7.26440         0.021726      0.023411     -0.015915
Pd     12.06858      7.90258      7.12474         0.002357      0.010824     -0.002934
Pd      8.52073      7.33222      6.93943        -0.031643     -0.000788     -0.026663
Pd     11.49521     11.44797      5.67392        -0.015735     -0.003763     -0.002495
Pd     14.46994      8.86254      7.80925         0.018499      0.036910      0.001897
Pd      9.83942     11.79482      7.88220         0.026707     -0.043417     -0.027017
Pd      7.07592      7.17983     11.96137         0.046748      0.035963      0.079668
Pd      6.46206      7.63947      8.50946        -0.003810     -0.006175     -0.009794
Pd      7.34424      9.27302     13.44565        -0.006177     -0.031876     -0.020743
Pd     11.40995      6.05284      9.22509        -0.023217      0.027961     -0.021702
Pd      9.90304      9.56277      6.35534         0.033594      0.038740      0.021836
Pd      9.13543     13.95770      9.32011        -0.020566      0.029901      0.018016
Pd     10.94058      7.20719     11.53562        -0.020718      0.014840     -0.034911
Pd     10.31929      9.07431      9.01371         0.099921      0.004082     -0.001571
Pd      9.29483     11.50557     10.47626         0.041907      0.039416      0.012490
Pd      8.91789      7.04887      9.61229        -0.015477     -0.005415      0.047454
Pd      9.08734      7.28856     13.62032        -0.028410     -0.003444      0.023672
Pd      9.08326      9.08063     11.42370        -0.072064     -0.013726     -0.011752
Pd     12.29555     10.60510      8.08690        -0.008780     -0.047226     -0.026213
Pd      7.06684     12.06893      9.20143         0.019039     -0.012890     -0.023480
Pd      8.02721      9.79122      8.22778        -0.006428     -0.013276     -0.040218
Pd     14.03334      6.33232      8.49722        -0.018090      0.029090     -0.018298
Pd     13.33477      8.36729     12.25141        -0.008342      0.006731      0.030161
Pd      9.17244     11.32295     13.20054         0.016506      0.006946      0.047425
Pd     14.05330     12.41881      8.81622         0.033106     -0.017505      0.012228
Pd     13.16760     10.94300     13.02082        -0.028530      0.012986     -0.019988
Pd     14.30161     10.30061     10.43943         0.046419      0.028627      0.016943
Pd     11.67839     10.49333     10.85047         0.053649      0.002112      0.051281
Pd     11.55291     12.98993      9.74601        -0.056108      0.014404     -0.000335
Pd     13.68866     12.92452     11.49331         0.017080     -0.003416     -0.000268
Pd     11.22940     12.72786     12.35214        -0.051282     -0.022778      0.013972
Pd     11.29279     11.50930     14.82048        -0.007820     -0.003611     -0.008386
Pd     11.05593      9.31094     13.22917         0.028613      0.050828     -0.068097
Pd      9.45031      9.56423     15.29393        -0.001662      0.020044      0.011066
Pd      8.84018     13.75166     11.98998        -0.000058      0.006717     -0.001859
