152
# total energy = -1022.86209376 eVH     10.35389      5.87395      7.64558         0.477854      0.031443      0.908541
H     10.62451     15.10445      7.64558        -0.046428      0.032770      0.766585
H     10.62451      5.87395     13.33282         0.143506      0.116600     -0.604947
H     10.35389     15.10445     13.33282        -0.269748     -0.075188     -0.570081
H      7.64558     10.35389      5.87395         0.334695     -0.036553      0.190861
H      7.64558     10.62451     15.10445         0.615499     -0.188002     -0.139777
H     13.33282     10.62451      5.87395        -0.852089     -0.312353      0.168831
H     13.33282     10.35389     15.10445        -0.467554     -0.093882     -0.058120
H      5.87395      7.64558     10.35389         0.125754      1.124707     -0.147581
H     15.10445      7.64558     10.62451        -0.168416      0.404195     -0.086075
H      5.87395     13.33282     10.62451         0.143692     -0.407794     -0.071283
H     15.10445     13.33282     10.35389        -0.077464     -0.968967     -0.192109
H      5.87395     10.35389      7.64558         0.130082      0.040187      0.481665
H     15.10445     10.62451      7.64558         0.125995     -0.211069      0.815455
H      5.87395     10.62451     13.33282         0.267817     -0.029758     -0.393922
H     15.10445     10.35389     13.33282        -0.143435      0.011527     -0.631234
H     10.35389      7.64558      5.87395         0.065172      0.841651      0.119821
H     10.62451      7.64558     15.10445         0.028716      0.551910     -0.144701
H     10.62451     13.33282      5.87395         0.065873     -0.605477      0.187556
H     10.35389     13.33282     15.10445        -0.254613     -0.887119     -0.106232
H      7.64558      5.87395     10.35389         0.526942      0.039559     -0.135480
H      7.64558     15.10445     10.62451         0.906716     -0.215266      0.290749
H     13.33282      5.87395     10.62451        -0.435299      0.186789     -0.058810
H     13.33282     15.10445     10.35389        -0.989080     -0.102220      0.238724
H     12.45634     12.45634     19.01126         0.267232      0.257864     -0.224506
H     19.01126     19.01126     19.01126        -0.247566     -0.234728     -0.262601
H     19.01126     12.45634     12.45634        -0.241283      0.270334      0.238677
H     12.45634     19.01126     12.45634         0.211522     -0.283115      0.252542
C     10.35284      5.61067      6.59456        -0.129991     -0.430768     -0.410752
C     10.62556     15.36773      6.59456         0.022307      0.345860     -1.147725
C     10.62556      5.61067     14.38384        -0.025688     -0.220235      0.722922
C     10.35284     15.36773     14.38384         0.186202      0.776638      0.143949
C      6.59456     10.35284      5.61067        -0.422233     -0.040235     -0.184612
C      6.59456     10.62556     15.36773        -0.789418      0.148746      0.350923
C     14.38384     10.62556      5.61067         0.626317      0.278682     -0.370492
C     14.38384     10.35284     15.36773         0.742256     -0.122404      0.431855
C      5.61067      6.59456     10.35284        -0.426560     -0.760091      0.275144
C     15.36773      6.59456     10.62556         0.195109     -0.470977      0.046077
C      5.61067     14.38384     10.62556        -0.251581      0.383351     -0.024077
C     15.36773     14.38384     10.35284         0.405744      0.132035      0.177933
C      5.61067     10.35284      6.59456        -0.306918     -0.013055     -0.886727
C     15.36773     10.62556      6.59456         0.566132     -0.150639     -1.231140
C      5.61067     10.62556     14.38384        -0.459620      0.007216      0.890773
C     15.36773     10.35284     14.38384         0.529199     -0.180067      1.248251
C     10.35284      6.59456      5.61067        -0.037349     -0.913407     -0.677161
C     10.62556      6.59456     15.36773         0.041982     -0.657074      0.296912
C     10.62556     14.38384      5.61067         0.044195      1.253195     -0.685559
C     10.35284     14.38384     15.36773         0.093413      0.591230      0.669339
C      6.59456      5.61067     10.35284        -0.221801     -0.892652      0.126972
C      6.59456     15.36773     10.62556        -1.722314      0.494272      0.048130
C     14.38384      5.61067     10.62556         0.580897     -0.223349     -0.006887
C     14.38384     15.36773     10.35284         0.136879      0.559236     -0.243320
C     10.40319      3.19606      7.29314         0.016863      0.917949     -0.254947
C     10.35913      4.25547      6.23373        -0.051797     -0.365850      0.620387
C      0.08601      7.29314      7.29314        -0.008875     -0.237808     -0.472883
C      0.13007      6.23373      6.23373         0.002464      0.114810      0.206789
C      0.08601      3.19606      3.19606        -0.016437      0.649290      0.179765
C      0.13007      4.25547      4.25547        -0.090014     -0.198527     -0.171652
C     10.40319      7.29314      3.19606        -0.000775     -0.697109      0.528810
C     10.35913      6.23373      4.25547        -0.005566      0.523338     -0.392698
C      7.29314     10.40319      3.19606        -0.345863      0.022972      0.848996
C      6.23373     10.35913      4.25547         0.214328      0.015544     -0.143086
C      7.29314      0.08601      7.29314        -0.310718     -0.046513     -0.270557
C      6.23373      0.13007      6.23373         0.268088     -0.059508      0.295424
C      3.19606      0.08601      3.19606         0.441075     -0.052387      1.294559
C      4.25547      0.13007      4.25547        -0.115269     -0.029847     -0.461306
C      3.19606     10.40319      7.29314         0.712287      0.014831     -0.262977
C      4.25547     10.35913      6.23373        -0.137485      0.034941      0.109678
C      3.19606      7.29314     10.40319         0.603962     -1.264232      0.025139
C      4.25547      6.23373     10.35913        -0.711451      0.843280      0.049969
C      7.29314      7.29314      0.08601        -0.662729     -0.170401     -0.022418
C      6.23373      6.23373      0.13007         0.173625      0.266696     -0.009111
C      3.19606      3.19606      0.08601         0.242374      0.253153     -0.019462
C      4.25547      4.25547      0.13007        -0.052441     -0.036900      0.011218
C      7.29314      3.19606     10.40319        -0.373035      0.790783      0.015398
C      6.23373      4.25547     10.35913         0.880399     -0.157805      0.010113
O     10.43466      3.58206      8.50569        -0.049718      0.030181      0.318190
O     10.54374     17.39634      8.50569        -0.024893     -0.182309      0.604289
O     10.54374      3.58206     12.47271         0.055461      0.061178     -0.321973
O     10.43466     17.39634     12.47271        -0.023962     -0.123479     -0.581313
O      8.50569     10.43466      3.58206         0.385128     -0.023504     -0.011095
O      8.50569     10.54374     17.39634         0.472478      0.053445     -0.143107
O     12.47271     10.54374      3.58206        -0.287090      0.048658     -0.076358
O     12.47271     10.43466     17.39634        -0.856285      0.020943     -0.225257
O      3.58206      8.50569     10.43466         0.042123      0.920077      0.037505
O     17.39634      8.50569     10.54374        -0.037386      0.336607      0.078185
O      3.58206     12.47271     10.54374         0.063575     -0.421853      0.063753
O     17.39634     12.47271     10.43466        -0.170284     -0.775769      0.019945
O      3.58206     10.43466      8.50569        -0.057083     -0.066712      0.222533
O     17.39634     10.54374      8.50569        -0.135643      0.042316      0.458650
O      3.58206     10.54374     12.47271        -0.018393     -0.050604     -0.889599
O     17.39634     10.43466     12.47271        -0.197593      0.041064     -0.760365
O     10.43466      8.50569      3.58206         0.045603      0.686986      0.192205
O     10.54374      8.50569     17.39634         0.054434      0.432608     -0.078636
O     10.54374     12.47271      3.58206        -0.008895     -0.731719      0.227856
O     10.43466     12.47271     17.39634         0.050223     -0.858731     -0.276619
O      8.50569      3.58206     10.43466         0.493400      0.076536     -0.038664
O      8.50569     17.39634     10.54374         0.659907     -0.254102     -0.062470
O     12.47271      3.58206     10.54374        -0.485885      0.163003      0.039596
O     12.47271     17.39634     10.43466        -0.527221     -0.038172     -0.029668
O     11.90042     11.90042     19.56718        -0.304085     -0.312089      0.263097
O     19.56718     19.56718     19.56718         0.287669      0.271290      0.320737
O     19.56718     11.90042     11.90042         0.280493     -0.330261     -0.244279
O     11.90042     19.56718     11.90042        -0.229207      0.290868     -0.241102
O      9.45224      1.03696      9.45224        -0.073994      0.048695     -0.066949
O      1.03696      9.45224      9.45224         0.055062     -0.146101     -0.058119
O      1.03696      1.03696      1.03696         0.042625      0.033735      0.187963
O      9.45224      9.45224      1.03696        -0.039533     -0.092439      0.122200
Zr     10.48920      2.52580     10.48920        -0.007730     -0.074572     -0.023570
Zr     10.48920     18.45260     10.48920         0.062391      0.308830     -0.069590
Zr     10.48920     10.48920      2.52580        -0.099858      0.011595     -0.375326
Zr     10.48920     10.48920     18.45260        -0.138686     -0.158038      0.331017
Zr      2.52580     10.48920     10.48920        -0.350823      0.314915     -0.462042
Zr     18.45260     10.48920     10.48920         0.238511      0.038997     -0.263010
Pd      9.04032     10.26590     13.34111        -0.012487     -0.013814     -0.000182
Pd     10.58313      9.72524     10.98171         0.003683     -0.013299     -0.038085
Pd     13.76638      8.55259     12.68223         0.001667      0.004771     -0.003959
Pd     10.99992     11.07572     15.03142        -0.002030     -0.015938     -0.003761
Pd     12.86970     11.20007     13.04372         0.018083      0.005375      0.003170
Pd     14.97635     10.93805     11.34092         0.002237      0.013815     -0.009394
Pd      6.66020      7.44193     12.33840        -0.005376      0.020976      0.003580
Pd      9.22138      7.26937     10.13138         0.006562      0.015066     -0.026428
Pd      9.27375      7.61740     12.80275         0.006606     -0.009540     -0.019452
Pd     11.69896      7.29552     11.46537         0.007216      0.004215     -0.006792
Pd     11.38841      7.99773      8.85734         0.033352     -0.005045     -0.012581
Pd      7.26180     11.84042     11.96002         0.001646      0.001363     -0.012551
Pd      8.91720     14.68192      9.34434         0.036937      0.004334      0.012620
Pd      8.41599     12.66344     14.32669        -0.008372     -0.009498     -0.002927
Pd     13.54148     14.09026      8.55151         0.086203      0.031948     -0.044709
Pd     10.99952     13.34223      8.53322         0.067491      0.035697      0.039677
Pd     14.08235     11.52041      8.92231         0.001249      0.026961     -0.005280
Pd      8.63101     14.10896     12.10439         0.005608     -0.003093      0.000307
Pd     12.24183     13.75099     14.02730        -0.007000     -0.004701     -0.000857
Pd     11.17661     14.42436     11.16350         0.026870     -0.010978      0.045923
Pd     14.05610     13.56277     12.17092        -0.011030      0.012037     -0.004832
Pd     12.31331     12.13078     10.68595        -0.000571     -0.020948      0.008654
Pd     12.65634     12.32893      6.71340         0.020695      0.042628     -0.014900
Pd     13.65199      8.93590      7.91466         0.031648      0.008232     -0.002373
Pd      6.86282      8.47084      8.85917         0.010893      0.010380     -0.003800
Pd      5.52748      9.94263     11.25785         0.004716      0.027656     -0.046245
Pd      9.14112      9.75150      8.29927         0.032399     -0.025914     -0.010266
Pd      8.82043      7.24049      7.47201        -0.018567     -0.008811     -0.031361
Pd      9.53184     12.08524     10.43306         0.022256      0.008139     -0.001446
Pd     11.52819     10.71171      8.57058         0.020395      0.008721     -0.031825
Pd     11.23902      9.24553      6.43321         0.034436     -0.022699     -0.010582
Pd      9.89583     11.55746      6.37460         0.025910     -0.022211     -0.000657
Ir     11.35899      9.11984     13.36055        -0.000496      0.009125     -0.041366
Ir     13.07514      9.47704     10.38581         0.007449      0.007699     -0.006537
Ir     10.53722     12.35610     12.72045        -0.002586     -0.017543      0.012422
Ir      7.15195     10.99114      9.50592         0.026618     -0.009631     -0.003567
Ir      8.42087     12.46838      8.19137         0.071039      0.038344     -0.022679
Ir      8.06830      9.31124     11.12343        -0.004444     -0.000148     -0.003992
