152
# total energy = -1024.44469033 eVH     10.35389      5.87395      7.64558         0.474185      0.027248      0.736526
H     10.62451     15.10445      7.64558         0.065793     -0.201583      0.628375
H     10.62451      5.87395     13.33282         0.099159      0.151086     -0.580580
H     10.35389     15.10445     13.33282        -0.508466     -0.024712     -0.758630
H      7.64558     10.35389      5.87395         0.348628      0.027963      0.161207
H      7.64558     10.62451     15.10445         0.948719     -0.241764      0.052983
H     13.33282     10.62451      5.87395        -0.803479     -0.141632      0.152751
H     13.33282     10.35389     15.10445        -0.904601     -0.442549      0.212441
H      5.87395      7.64558     10.35389         0.160103      0.722851     -0.317820
H     15.10445      7.64558     10.62451        -0.141255      0.380707     -0.015901
H      5.87395     13.33282     10.62451         0.156189     -0.508753     -0.101212
H     15.10445     13.33282     10.35389        -0.091584     -1.191443      0.104416
H      5.87395     10.35389      7.64558         0.137006      0.176185      0.513347
H     15.10445     10.62451      7.64558         0.006304      0.104856      1.023917
H      5.87395     10.62451     13.33282         0.071282     -0.039672     -0.463978
H     15.10445     10.35389     13.33282        -0.186937     -0.146545     -0.425949
H     10.35389      7.64558      5.87395         0.090822      1.012968      0.227554
H     10.62451      7.64558     15.10445         0.000693      0.269945     -0.157757
H     10.62451     13.33282      5.87395        -0.085815     -0.385384      0.320350
H     10.35389     13.33282     15.10445        -0.445738     -0.576186      0.004148
H      7.64558      5.87395     10.35389         0.539853      0.086010     -0.117304
H      7.64558     15.10445     10.62451         0.950880     -0.206613     -0.205060
H     13.33282      5.87395     10.62451        -0.590128      0.090013     -0.065905
H     13.33282     15.10445     10.35389        -0.581437     -0.063329      0.251471
H     12.45634     12.45634     19.01126         0.237352      0.276877     -0.237355
H     19.01126     19.01126     19.01126        -0.248572     -0.249243     -0.242455
H     19.01126     12.45634     12.45634        -0.267235      0.264773      0.219494
H     12.45634     19.01126     12.45634         0.237157     -0.267399      0.240234
C     10.35284      5.61067      6.59456        -0.226921     -0.682276      0.100742
C     10.62556     15.36773      6.59456        -0.050661      0.376691     -0.853782
C     10.62556      5.61067     14.38384        -0.005389     -0.055194      0.712113
C     10.35284     15.36773     14.38384         0.196776      0.700223      0.163538
C      6.59456     10.35284      5.61067        -0.356399     -0.015240     -0.308114
C      6.59456     10.62556     15.36773        -1.100382      0.260140      0.281216
C     14.38384     10.62556      5.61067         0.433809      0.378667     -0.679468
C     14.38384     10.35284     15.36773         1.093772      0.040679      0.224066
C      5.61067      6.59456     10.35284        -0.433946     -0.366263      0.360418
C     15.36773      6.59456     10.62556         0.187076     -0.492961      0.010819
C      5.61067     14.38384     10.62556        -0.204398      0.555044     -0.006846
C     15.36773     14.38384     10.35284         0.324858      0.039848     -0.113269
C      5.61067     10.35284      6.59456        -0.333207     -0.089942     -0.995968
C     15.36773     10.62556      6.59456         0.904187     -0.346137     -0.946691
C      5.61067     10.62556     14.38384        -0.430763      0.028936      0.295567
C     15.36773     10.35284     14.38384         0.652524     -0.098496      1.062067
C     10.35284      6.59456      5.61067        -0.247856     -0.572258     -0.943962
C     10.62556      6.59456     15.36773         0.061114     -0.258638      0.046255
C     10.62556     14.38384      5.61067         0.057797      1.206398     -0.419238
C     10.35284     14.38384     15.36773         0.272900      0.166938      0.723572
C      6.59456      5.61067     10.35284        -0.182107     -0.733696      0.166143
C      6.59456     15.36773     10.62556        -1.249029      0.245839      0.180495
C     14.38384      5.61067     10.62556         1.077921     -0.298605      0.039267
C     14.38384     15.36773     10.35284        -0.467164      0.793792     -0.404104
C     10.40319      3.19606      7.29314        -0.034910      0.906091     -0.425894
C     10.35913      4.25547      6.23373         0.057176     -0.521980      0.547025
C      0.08601      7.29314      7.29314        -0.021317     -0.398114     -0.348032
C      0.13007      6.23373      6.23373        -0.023832      0.015201      0.098431
C      0.08601      3.19606      3.19606         0.011473      1.274978      0.193382
C      0.13007      4.25547      4.25547        -0.046828     -0.224654     -0.198673
C     10.40319      7.29314      3.19606        -0.013868     -1.059959      0.374031
C     10.35913      6.23373      4.25547         0.042572      0.485093     -0.675298
C      7.29314     10.40319      3.19606        -0.314383      0.029647      0.732855
C      6.23373     10.35913      4.25547         0.142843      0.063669     -0.103975
C      7.29314      0.08601      7.29314        -0.659285     -0.017893     -0.270169
C      6.23373      0.13007      6.23373         0.379390     -0.078803      0.555571
C      3.19606      0.08601      3.19606         1.012281     -0.004539      0.257877
C      4.25547      0.13007      4.25547        -0.169010     -0.035427     -0.532458
C      3.19606     10.40319      7.29314         0.361885     -0.008593     -0.924612
C      4.25547     10.35913      6.23373        -0.277352      0.089944      0.235365
C      3.19606      7.29314     10.40319         0.523577     -1.354777     -0.036853
C      4.25547      6.23373     10.35913        -0.557756      0.732967      0.109546
C      7.29314      7.29314      0.08601        -0.390127     -0.236682      0.002632
C      6.23373      6.23373      0.13007         0.156917      0.150603     -0.002145
C      3.19606      3.19606      0.08601         0.265146      0.244287     -0.017090
C      4.25547      4.25547      0.13007        -0.123884     -0.053198      0.005169
C      7.29314      3.19606     10.40319        -0.397528      0.627213      0.007500
C      6.23373      4.25547     10.35913         1.076662     -0.137788      0.055375
O     10.43466      3.58206      8.50569        -0.024053      0.037631      0.443119
O     10.54374     17.39634      8.50569        -0.006518     -0.114827      0.466187
O     10.54374      3.58206     12.47271         0.039874     -0.107434     -0.128204
O     10.43466     17.39634     12.47271        -0.059038     -0.042972     -0.477146
O      8.50569     10.43466      3.58206         0.287308     -0.029513     -0.040324
O      8.50569     10.54374     17.39634         0.717838      0.027962     -0.204293
O     12.47271     10.54374      3.58206        -0.789281     -0.037518      0.148089
O     12.47271     10.43466     17.39634        -0.290232     -0.029818      0.030486
O      3.58206      8.50569     10.43466         0.162666      1.115337     -0.031592
O     17.39634      8.50569     10.54374        -0.100329      0.440229      0.059123
O      3.58206     12.47271     10.54374         0.068174     -0.398576      0.035506
O     17.39634     12.47271     10.43466        -0.157783     -0.675444     -0.009864
O      3.58206     10.43466      8.50569         0.071048     -0.068203      0.796810
O     17.39634     10.54374      8.50569        -0.062768      0.044227      0.333414
O      3.58206     10.54374     12.47271        -0.012525      0.037064     -0.241874
O     17.39634     10.43466     12.47271        -0.256877     -0.002673     -0.722331
O     10.43466      8.50569      3.58206         0.118780      0.838640      0.190802
O     10.54374      8.50569     17.39634         0.032556      0.600178     -0.143115
O     10.54374     12.47271      3.58206         0.008180     -1.010748      0.175739
O     10.43466     12.47271     17.39634        -0.042354     -0.947362     -0.212212
O      8.50569      3.58206     10.43466         0.566063      0.129248     -0.015519
O      8.50569     17.39634     10.54374         0.504577     -0.193879     -0.009951
O     12.47271      3.58206     10.54374        -0.479217      0.162095      0.059436
O     12.47271     17.39634     10.43466        -0.407647      0.032285     -0.007599
O     11.90042     11.90042     19.56718        -0.269008     -0.325935      0.258214
O     19.56718     19.56718     19.56718         0.277986      0.292864      0.284151
O     19.56718     11.90042     11.90042         0.301843     -0.300748     -0.202246
O     11.90042     19.56718     11.90042        -0.264097      0.285690     -0.248909
O      9.45224      1.03696      9.45224        -0.079988      0.048591     -0.058528
O      1.03696      9.45224      9.45224         0.043883     -0.151968     -0.112601
O      1.03696      1.03696      1.03696         0.026090      0.118685      0.196020
O      9.45224      9.45224      1.03696        -0.068472     -0.086461      0.118558
Zr     10.48920      2.52580     10.48920        -0.053177     -0.124184     -0.171352
Zr     10.48920     18.45260     10.48920         0.008636      0.213446     -0.025397
Zr     10.48920     10.48920      2.52580        -0.169909     -0.195055     -0.513033
Zr     10.48920     10.48920     18.45260         0.005173     -0.020486      0.432315
Zr      2.52580     10.48920     10.48920        -0.368996      0.304649      0.168640
Zr     18.45260     10.48920     10.48920         0.203497      0.066069     -0.205871
Pd      8.29121      9.66873     13.25874        -0.021252     -0.015930      0.005918
Pd     10.48249      9.43499     10.19348        -0.023317     -0.008494     -0.000280
Pd     12.98632      8.78683     12.47319        -0.010299     -0.007790     -0.011313
Pd     10.30012     10.82009     15.06179        -0.003893      0.006521     -0.000809
Pd     12.78341     11.36716     13.59678        -0.025331      0.018152      0.005520
Pd     14.85430     10.57528     11.36486        -0.028765     -0.009284     -0.038506
Pd      6.89800      7.46309     12.29918         0.006207      0.009138      0.003530
Pd      9.20041      7.18911      9.45226         0.014486     -0.024506      0.001383
Pd      9.59208      7.54147     12.21013        -0.019238     -0.014863      0.015106
Pd     11.75191      7.07133     10.79212         0.014994      0.002481      0.022043
Pd     11.61763      7.82097      8.25714         0.003254      0.013021     -0.024908
Pd      7.17958     11.67139     11.51927        -0.012427     -0.018112      0.005211
Pd      9.28056     14.31159      9.24559        -0.000023      0.008918      0.000193
Pd      8.11985     12.29852     14.01085         0.012294      0.005489     -0.002276
Pd     14.23564     14.16810      8.35433        -0.003853      0.004226      0.002596
Pd     11.73858     13.28212      8.79590        -0.026344     -0.011444      0.011498
Pd     14.10464     11.59502      9.01788         0.025877     -0.004661      0.016036
Pd      8.69279     13.98755     11.99279        -0.003909     -0.016618      0.006200
Pd     12.21834     14.01415     13.93397         0.035295     -0.022702     -0.028850
Pd     11.40547     14.13717     11.28731         0.005243      0.008712     -0.006469
Pd     14.00451     13.26573     12.09370        -0.027158     -0.016788      0.018434
Pd     12.26844     11.49192     10.92013        -0.006374      0.009211     -0.001249
Pd     13.02143     12.58760      6.60258        -0.017493     -0.000731     -0.012271
Pd     13.95976      8.83412      7.58050        -0.014165      0.003366     -0.006009
Pd      6.96336      8.44868      8.37592        -0.003131     -0.018448     -0.000939
Pd      5.55800     10.01314     10.06849        -0.019390      0.009749     -0.000383
Pd      9.39111      9.44787      7.43821        -0.002078      0.013764      0.008525
Pd      8.46849      6.96384      6.84849         0.005787     -0.005777      0.031926
Pd      9.67332     11.94704     10.51215         0.007021     -0.009139      0.009547
Pd     11.78721     10.60464      8.06592        -0.007039     -0.008545     -0.025419
Pd     11.79433      8.92949      5.84883        -0.002716      0.014801      0.027746
Pd     10.62578     11.33821      5.73823        -0.002442     -0.019667     -0.009559
Ir     10.73258      9.85447     12.69709         0.022970      0.006931      0.019065
Ir     13.13638      9.23451      9.95032         0.022468     -0.015027      0.027803
Ir     10.47468     12.30820     12.88851        -0.005917     -0.000211      0.028878
Ir      7.76696     10.95134      9.06164        -0.003613      0.001298     -0.000576
Ir      9.57058     12.05167      7.95592        -0.014741     -0.005449     -0.003865
Ir      8.00360      9.15773     10.73680         0.003875      0.011869     -0.001831
