152
# total energy = -1022.89984815 eVH     10.35389      5.87395      7.64558         0.480289      0.031586      0.889916
H     10.62451     15.10445      7.64558        -0.056929      0.032108      0.778305
H     10.62451      5.87395     13.33282         0.146737      0.117035     -0.610761
H     10.35389     15.10445     13.33282        -0.262192     -0.079782     -0.568170
H      7.64558     10.35389      5.87395         0.332065     -0.033611      0.190637
H      7.64558     10.62451     15.10445         0.620559     -0.195180     -0.139010
H     13.33282     10.62451      5.87395        -0.836797     -0.299640      0.173338
H     13.33282     10.35389     15.10445        -0.458223     -0.088728     -0.063551
H      5.87395      7.64558     10.35389         0.133679      1.112270     -0.163679
H     15.10445      7.64558     10.62451        -0.169462      0.407091     -0.087441
H      5.87395     13.33282     10.62451         0.144130     -0.409654     -0.071862
H     15.10445     13.33282     10.35389        -0.080424     -0.972194     -0.170254
H      5.87395     10.35389      7.64558         0.131178      0.045348      0.484576
H     15.10445     10.62451      7.64558         0.114514     -0.192727      0.845214
H      5.87395     10.62451     13.33282         0.261203     -0.032498     -0.394646
H     15.10445     10.35389     13.33282        -0.145769      0.012131     -0.621936
H     10.35389      7.64558      5.87395         0.065579      0.865926      0.120744
H     10.62451      7.64558     15.10445         0.026220      0.540709     -0.146628
H     10.62451     13.33282      5.87395         0.048226     -0.600535      0.190850
H     10.35389     13.33282     15.10445        -0.259519     -0.885861     -0.107416
H      7.64558      5.87395     10.35389         0.521004      0.047720     -0.126662
H      7.64558     15.10445     10.62451         0.908021     -0.219282      0.266670
H     13.33282      5.87395     10.62451        -0.438852      0.185472     -0.059216
H     13.33282     15.10445     10.35389        -0.954685     -0.107264      0.234461
H     12.45634     12.45634     19.01126         0.266219      0.257917     -0.225099
H     19.01126     19.01126     19.01126        -0.247541     -0.234638     -0.262517
H     19.01126     12.45634     12.45634        -0.240511      0.270651      0.238791
H     12.45634     19.01126     12.45634         0.212429     -0.281925      0.252256
C     10.35284      5.61067      6.59456        -0.124968     -0.440567     -0.367926
C     10.62556     15.36773      6.59456         0.026758      0.344072     -1.165117
C     10.62556      5.61067     14.38384        -0.030871     -0.215980      0.731177
C     10.35284     15.36773     14.38384         0.169996      0.782066      0.171093
C      6.59456     10.35284      5.61067        -0.412586     -0.038824     -0.179571
C      6.59456     10.62556     15.36773        -0.795179      0.155282      0.351414
C     14.38384     10.62556      5.61067         0.590252      0.283950     -0.380489
C     14.38384     10.35284     15.36773         0.734393     -0.119636      0.429622
C      5.61067      6.59456     10.35284        -0.420759     -0.733122      0.292937
C     15.36773      6.59456     10.62556         0.194276     -0.469942      0.046688
C      5.61067     14.38384     10.62556        -0.245493      0.380317     -0.027169
C     15.36773     14.38384     10.35284         0.401298      0.117357      0.150945
C      5.61067     10.35284      6.59456        -0.304910     -0.014921     -0.883595
C     15.36773     10.62556      6.59456         0.572787     -0.165538     -1.235957
C      5.61067     10.62556     14.38384        -0.450523      0.006831      0.850535
C     15.36773     10.35284     14.38384         0.522720     -0.180907      1.240586
C     10.35284      6.59456      5.61067        -0.045001     -0.897134     -0.661276
C     10.62556      6.59456     15.36773         0.041860     -0.640494      0.289864
C     10.62556     14.38384      5.61067         0.050171      1.224769     -0.672346
C     10.35284     14.38384     15.36773         0.106153      0.592848      0.657568
C      6.59456      5.61067     10.35284        -0.200601     -0.885528      0.127141
C      6.59456     15.36773     10.62556        -1.709385      0.488431      0.057043
C     14.38384      5.61067     10.62556         0.590641     -0.227933     -0.007274
C     14.38384     15.36773     10.35284         0.060987      0.570900     -0.249981
C     10.40319      3.19606      7.29314         0.015481      0.902859     -0.256585
C     10.35913      4.25547      6.23373        -0.052282     -0.378218      0.600969
C      0.08601      7.29314      7.29314        -0.008724     -0.240953     -0.474157
C      0.13007      6.23373      6.23373         0.006657      0.115282      0.209961
C      0.08601      3.19606      3.19606        -0.015944      0.647219      0.182570
C      0.13007      4.25547      4.25547        -0.089803     -0.198679     -0.172285
C     10.40319      7.29314      3.19606        -0.001869     -0.696876      0.530746
C     10.35913      6.23373      4.25547        -0.010233      0.499895     -0.422895
C      7.29314     10.40319      3.19606        -0.340505      0.023679      0.861030
C      6.23373     10.35913      4.25547         0.211992      0.014540     -0.140037
C      7.29314      0.08601      7.29314        -0.312001     -0.045850     -0.275986
C      6.23373      0.13007      6.23373         0.273383     -0.058971      0.302337
C      3.19606      0.08601      3.19606         0.455490     -0.051643      1.267614
C      4.25547      0.13007      4.25547        -0.112574     -0.031208     -0.462306
C      3.19606     10.40319      7.29314         0.708564      0.014286     -0.264783
C      4.25547     10.35913      6.23373        -0.136874      0.033089      0.105460
C      3.19606      7.29314     10.40319         0.610620     -1.272780      0.022776
C      4.25547      6.23373     10.35913        -0.704613      0.853671      0.053191
C      7.29314      7.29314      0.08601        -0.661939     -0.173035     -0.021404
C      6.23373      6.23373      0.13007         0.175855      0.264848     -0.006994
C      3.19606      3.19606      0.08601         0.243699      0.254341     -0.019031
C      4.25547      4.25547      0.13007        -0.055258     -0.036709      0.009880
C      7.29314      3.19606     10.40319        -0.372494      0.808971      0.013350
C      6.23373      4.25547     10.35913         0.897825     -0.150791      0.006052
O     10.43466      3.58206      8.50569        -0.048878      0.033640      0.323698
O     10.54374     17.39634      8.50569        -0.025720     -0.180940      0.602017
O     10.54374      3.58206     12.47271         0.054724      0.061508     -0.322227
O     10.43466     17.39634     12.47271        -0.022408     -0.124976     -0.585341
O      8.50569     10.43466      3.58206         0.379573     -0.024879     -0.014547
O      8.50569     10.54374     17.39634         0.473152      0.052563     -0.143201
O     12.47271     10.54374      3.58206        -0.300431      0.045453     -0.066572
O     12.47271     10.43466     17.39634        -0.856016      0.019702     -0.227366
O      3.58206      8.50569     10.43466         0.046678      0.933813      0.037127
O     17.39634      8.50569     10.54374        -0.037855      0.336859      0.077818
O      3.58206     12.47271     10.54374         0.063065     -0.423753      0.064379
O     17.39634     12.47271     10.43466        -0.170836     -0.786651      0.022295
O      3.58206     10.43466      8.50569        -0.057569     -0.067510      0.222641
O     17.39634     10.54374      8.50569        -0.135957      0.042558      0.461248
O      3.58206     10.54374     12.47271        -0.006168     -0.050555     -0.883600
O     17.39634     10.43466     12.47271        -0.197694      0.043022     -0.766020
O     10.43466      8.50569      3.58206         0.046063      0.682907      0.189731
O     10.54374      8.50569     17.39634         0.054707      0.437187     -0.079935
O     10.54374     12.47271      3.58206        -0.007114     -0.733551      0.226648
O     10.43466     12.47271     17.39634         0.048389     -0.854397     -0.274368
O      8.50569      3.58206     10.43466         0.489910      0.071956     -0.037773
O      8.50569     17.39634     10.54374         0.659553     -0.255458     -0.062652
O     12.47271      3.58206     10.54374        -0.483068      0.162846      0.039385
O     12.47271     17.39634     10.43466        -0.528547     -0.034876     -0.028253
O     11.90042     11.90042     19.56718        -0.303519     -0.312184      0.263389
O     19.56718     19.56718     19.56718         0.287021      0.270948      0.320442
O     19.56718     11.90042     11.90042         0.278901     -0.330460     -0.244033
O     11.90042     19.56718     11.90042        -0.231880      0.289646     -0.241796
O      9.45224      1.03696      9.45224        -0.074667      0.047244     -0.067120
O      1.03696      9.45224      9.45224         0.051399     -0.148111     -0.060572
O      1.03696      1.03696      1.03696         0.039545      0.035768      0.188707
O      9.45224      9.45224      1.03696        -0.040962     -0.093188      0.121928
Zr     10.48920      2.52580     10.48920        -0.008147     -0.074551     -0.025534
Zr     10.48920     18.45260     10.48920         0.066617      0.311741     -0.068923
Zr     10.48920     10.48920      2.52580        -0.094467      0.012682     -0.378423
Zr     10.48920     10.48920     18.45260        -0.137761     -0.148825      0.334348
Zr      2.52580     10.48920     10.48920        -0.357996      0.312002     -0.449709
Zr     18.45260     10.48920     10.48920         0.244102      0.036671     -0.266524
Pd      9.03192     10.24856     13.33416        -0.011541     -0.017444      0.006057
Pd     10.58131      9.71778     10.95496        -0.016357     -0.004226     -0.037359
Pd     13.76769      8.54300     12.68003         0.006350      0.002347     -0.008225
Pd     11.00008     11.06110     15.01821        -0.005030     -0.017117     -0.003309
Pd     12.86805     11.18122     13.02209         0.027714      0.018232      0.019687
Pd     14.98818     10.94510     11.33750         0.005553      0.013056     -0.011539
Pd      6.65043      7.45425     12.34253        -0.002673      0.022712      0.001843
Pd      9.23280      7.27366     10.10041         0.002357      0.013621     -0.027606
Pd      9.27242      7.59848     12.78129         0.008691     -0.008806     -0.021502
Pd     11.70183      7.28983     11.45680        -0.001174     -0.006530     -0.016321
Pd     11.42260      7.99300      8.85301         0.028380     -0.005146     -0.013961
Pd      7.26634     11.83448     11.94483         0.006551      0.003805     -0.008621
Pd      8.93116     14.68370      9.34676         0.041932      0.010900      0.019475
Pd      8.41040     12.64861     14.32139        -0.004387     -0.009286     -0.002566
Pd     13.59772     14.11462      8.52184         0.085041      0.021258     -0.049029
Pd     11.04353     13.36872      8.54961         0.085169      0.043525      0.049106
Pd     14.09242     11.54265      8.92261        -0.006234      0.023160     -0.003814
Pd      8.62814     14.10287     12.10304         0.007693     -0.007388      0.005413
Pd     12.23931     13.72576     14.02781        -0.004657      0.001074      0.005537
Pd     11.17883     14.42560     11.18710         0.030914     -0.011491      0.051318
Pd     14.05231     13.55892     12.17167        -0.006799      0.012877     -0.003585
Pd     12.31092     12.13542     10.68091         0.014560     -0.030310      0.014015
Pd     12.67927     12.35790      6.70545         0.007635      0.033013     -0.014304
Pd     13.68638      8.94517      7.92570         0.026651      0.006897     -0.000831
Pd      6.87116      8.47032      8.84817         0.006979      0.007141     -0.008683
Pd      5.52958      9.95750     11.22597        -0.003265      0.026560     -0.052703
Pd      9.16990      9.72770      8.29947         0.020070     -0.025001     -0.019178
Pd      8.80350      7.23041      7.43900        -0.028074     -0.016465     -0.026620
Pd      9.54449     12.08746     10.42450         0.010323      0.007436     -0.023789
Pd     11.54934     10.71914      8.55049         0.017472      0.021225     -0.025920
Pd     11.27412      9.22245      6.43269         0.037666     -0.019892     -0.016078
Pd      9.92557     11.53258      6.37667         0.025947     -0.031539     -0.018550
Ir     11.35180      9.11310     13.33514        -0.022226      0.002420     -0.010720
Ir     13.08213      9.49170     10.38862         0.018827      0.009960     -0.027117
Ir     10.52917     12.34160     12.71822        -0.001809     -0.012739      0.028988
Ir      7.18545     10.98949      9.48588         0.059590      0.033637     -0.040359
Ir      8.45907     12.47703      8.17672         0.037023     -0.006648      0.026999
Ir      8.06792      9.30185     11.11463         0.031782     -0.006387      0.000247
