152
# total energy = -1024.31929756 eVH     10.35389      5.87395      7.64558         0.470239      0.040222      0.742766
H     10.62451     15.10445      7.64558         0.016604     -0.189292      0.591038
H     10.62451      5.87395     13.33282         0.103866      0.158981     -0.577974
H     10.35389     15.10445     13.33282        -0.432776     -0.048779     -0.776727
H      7.64558     10.35389      5.87395         0.342393      0.012460      0.170447
H      7.64558     10.62451     15.10445         0.892725     -0.340175     -0.012551
H     13.33282     10.62451      5.87395        -0.761562     -0.057994      0.156241
H     13.33282     10.35389     15.10445        -0.874942     -0.397829      0.199746
H      5.87395      7.64558     10.35389         0.205564      0.636304     -0.129299
H     15.10445      7.64558     10.62451        -0.140013      0.396431     -0.040792
H      5.87395     13.33282     10.62451         0.161028     -0.524657     -0.114555
H     15.10445     13.33282     10.35389        -0.081819     -1.180737      0.016371
H      5.87395     10.35389      7.64558         0.133241      0.144880      0.518316
H     15.10445     10.62451      7.64558         0.014957      0.100960      1.028606
H      5.87395     10.62451     13.33282         0.102521     -0.052256     -0.419001
H     15.10445     10.35389     13.33282        -0.124865     -0.166606     -0.545145
H     10.35389      7.64558      5.87395         0.037530      0.975143      0.240107
H     10.62451      7.64558     15.10445         0.009160      0.276934     -0.174375
H     10.62451     13.33282      5.87395        -0.090003     -0.425039      0.322652
H     10.35389     13.33282     15.10445        -0.459550     -0.636743     -0.017492
H      7.64558      5.87395     10.35389         0.483021      0.115767      0.010273
H      7.64558     15.10445     10.62451         0.893290     -0.253039     -0.061249
H     13.33282      5.87395     10.62451        -0.582774      0.132260     -0.075759
H     13.33282     15.10445     10.35389        -0.627926     -0.053872      0.229240
H     12.45634     12.45634     19.01126         0.237386      0.276249     -0.235847
H     19.01126     19.01126     19.01126        -0.251765     -0.246564     -0.242873
H     19.01126     12.45634     12.45634        -0.263355      0.267437      0.220951
H     12.45634     19.01126     12.45634         0.233079     -0.264808      0.241269
C     10.35284      5.61067      6.59456        -0.194112     -0.634129      0.068832
C     10.62556     15.36773      6.59456        -0.025390      0.376388     -0.775155
C     10.62556      5.61067     14.38384        -0.008985     -0.065429      0.699604
C     10.35284     15.36773     14.38384         0.147559      0.729057      0.190559
C      6.59456     10.35284      5.61067        -0.363425     -0.021937     -0.280955
C      6.59456     10.62556     15.36773        -1.022749      0.343802      0.355131
C     14.38384     10.62556      5.61067         0.407737      0.334348     -0.619950
C     14.38384     10.35284     15.36773         0.982832     -0.005838      0.325532
C      5.61067      6.59456     10.35284        -0.373625     -0.423571      0.312785
C     15.36773      6.59456     10.62556         0.194212     -0.517046      0.028180
C      5.61067     14.38384     10.62556        -0.192317      0.589283      0.013992
C     15.36773     14.38384     10.35284         0.353795      0.044935     -0.154845
C      5.61067     10.35284      6.59456        -0.315600     -0.071087     -0.959155
C     15.36773     10.62556      6.59456         0.805414     -0.323893     -0.982937
C      5.61067     10.62556     14.38384        -0.480445      0.013693      0.277324
C     15.36773     10.35284     14.38384         0.664098     -0.099036      1.096605
C     10.35284      6.59456      5.61067        -0.248223     -0.603897     -0.865655
C     10.62556      6.59456     15.36773         0.051522     -0.288451      0.068541
C     10.62556     14.38384      5.61067         0.096154      1.197995     -0.430842
C     10.35284     14.38384     15.36773         0.222888      0.124090      0.713843
C      6.59456      5.61067     10.35284        -0.314200     -0.733840      0.088710
C      6.59456     15.36773     10.62556        -1.200826      0.274960      0.098683
C     14.38384      5.61067     10.62556         0.944330     -0.285432      0.027393
C     14.38384     15.36773     10.35284        -0.518157      0.770646     -0.358498
C     10.40319      3.19606      7.29314        -0.017075      0.834279     -0.392710
C     10.35913      4.25547      6.23373         0.050652     -0.466071      0.568867
C      0.08601      7.29314      7.29314        -0.018048     -0.479127     -0.347281
C      0.13007      6.23373      6.23373        -0.019736      0.018283      0.097132
C      0.08601      3.19606      3.19606         0.001483      1.239547      0.190640
C      0.13007      4.25547      4.25547        -0.050545     -0.217448     -0.213458
C     10.40319      7.29314      3.19606        -0.004123     -1.030762      0.386640
C     10.35913      6.23373      4.25547         0.029057      0.469129     -0.648340
C      7.29314     10.40319      3.19606        -0.355325      0.040978      0.772103
C      6.23373     10.35913      4.25547         0.201291      0.087133     -0.106549
C      7.29314      0.08601      7.29314        -0.593781     -0.022063     -0.267226
C      6.23373      0.13007      6.23373         0.385666     -0.068825      0.464407
C      3.19606      0.08601      3.19606         0.928708     -0.010205      0.321916
C      4.25547      0.13007      4.25547        -0.109062     -0.042177     -0.510590
C      3.19606     10.40319      7.29314         0.457043     -0.004942     -0.815355
C      4.25547     10.35913      6.23373        -0.262957      0.103464      0.251502
C      3.19606      7.29314     10.40319         0.493340     -1.327890     -0.043424
C      4.25547      6.23373     10.35913        -0.414803      0.806446      0.071838
C      7.29314      7.29314      0.08601        -0.402095     -0.224689     -0.006602
C      6.23373      6.23373      0.13007         0.159377      0.145170     -0.010521
C      3.19606      3.19606      0.08601         0.247863      0.261681     -0.019085
C      4.25547      4.25547      0.13007        -0.108534     -0.052252      0.015756
C      7.29314      3.19606     10.40319        -0.366805      0.668449      0.009487
C      6.23373      4.25547     10.35913         1.113533      0.013219      0.022653
O     10.43466      3.58206      8.50569        -0.029398      0.055092      0.445394
O     10.54374     17.39634      8.50569        -0.004841     -0.090055      0.437044
O     10.54374      3.58206     12.47271         0.043828     -0.097413     -0.140128
O     10.43466     17.39634     12.47271        -0.057726     -0.051042     -0.475871
O      8.50569     10.43466      3.58206         0.308504     -0.032794     -0.040209
O      8.50569     10.54374     17.39634         0.682701      0.026463     -0.174298
O     12.47271     10.54374      3.58206        -0.745196     -0.038030      0.142842
O     12.47271     10.43466     17.39634        -0.407458     -0.026537     -0.024133
O      3.58206      8.50569     10.43466         0.145907      1.082804     -0.009368
O     17.39634      8.50569     10.54374        -0.089313      0.414545      0.062731
O      3.58206     12.47271     10.54374         0.068685     -0.408910      0.039375
O     17.39634     12.47271     10.43466        -0.162097     -0.691712      0.000300
O      3.58206     10.43466      8.50569         0.036555     -0.072367      0.692656
O     17.39634     10.54374      8.50569        -0.069034      0.044071      0.343127
O      3.58206     10.54374     12.47271        -0.008789      0.028314     -0.290927
O     17.39634     10.43466     12.47271        -0.245861      0.014290     -0.727623
O     10.43466      8.50569      3.58206         0.112598      0.828453      0.195723
O     10.54374      8.50569     17.39634         0.036560      0.669147     -0.160807
O     10.54374     12.47271      3.58206        -0.009319     -1.016045      0.198973
O     10.43466     12.47271     17.39634        -0.028328     -0.894770     -0.199816
O      8.50569      3.58206     10.43466         0.532703      0.108675     -0.017595
O      8.50569     17.39634     10.54374         0.522784     -0.207568     -0.012405
O     12.47271      3.58206     10.54374        -0.465395      0.156175      0.056804
O     12.47271     17.39634     10.43466        -0.392284      0.034606     -0.008440
O     11.90042     11.90042     19.56718        -0.272071     -0.325489      0.258824
O     19.56718     19.56718     19.56718         0.281984      0.286062      0.286656
O     19.56718     11.90042     11.90042         0.293510     -0.302959     -0.200791
O     11.90042     19.56718     11.90042        -0.269665      0.280946     -0.247363
O      9.45224      1.03696      9.45224        -0.083433      0.051450     -0.055903
O      1.03696      9.45224      9.45224         0.035760     -0.166865     -0.115038
O      1.03696      1.03696      1.03696         0.010109      0.116689      0.208832
O      9.45224      9.45224      1.03696        -0.063793     -0.087334      0.127914
Zr     10.48920      2.52580     10.48920        -0.033606     -0.119761     -0.170256
Zr     10.48920     18.45260     10.48920         0.019756      0.228918     -0.029578
Zr     10.48920     10.48920      2.52580        -0.110012     -0.180016     -0.536130
Zr     10.48920     10.48920     18.45260        -0.040598      0.028634      0.467716
Zr      2.52580     10.48920     10.48920        -0.367465      0.301605      0.128829
Zr     18.45260     10.48920     10.48920         0.203909      0.043720     -0.235546
Pd      8.53102      9.88165     13.22980        -0.033477     -0.029219      0.025418
Pd     10.52761      9.50441     10.24817         0.017869     -0.063078     -0.022277
Pd     13.29729      8.72655     12.46337        -0.020104     -0.005076      0.027305
Pd     10.43322     10.66477     15.07803        -0.044070      0.028939      0.022048
Pd     12.94523     11.35229     13.48818        -0.016083      0.013638     -0.006731
Pd     14.91664     10.69174     11.31521        -0.006512      0.007881      0.001551
Pd      6.84302      7.78737     12.45181         0.005372     -0.020801     -0.024042
Pd      9.21513      7.24776      9.55865         0.023797     -0.036694     -0.041732
Pd      9.52196      7.56509     12.28044         0.002264     -0.021916     -0.009852
Pd     11.74225      7.16488     10.90933         0.003172      0.020318     -0.005973
Pd     11.61277      7.84923      8.32708        -0.012300      0.003762     -0.009642
Pd      7.15840     11.74261     11.60169        -0.005426     -0.012444     -0.009047
Pd      9.21966     14.32164      9.33887         0.008045      0.056437      0.006871
Pd      8.13519     12.38774     14.17235         0.025246      0.001773     -0.010088
Pd     14.18544     14.22265      8.34129         0.004190     -0.024820      0.007667
Pd     11.69066     13.34714      8.82343         0.012713     -0.006777     -0.016782
Pd     14.09776     11.64642      8.97001        -0.003073     -0.009631     -0.016721
Pd      8.73365     13.94874     12.12135         0.001346      0.004781     -0.034282
Pd     12.19572     13.92981     13.97190         0.034110     -0.007155     -0.036906
Pd     11.37152     14.10537     11.35247         0.033551     -0.011279      0.012855
Pd     14.00903     13.38938     12.08508         0.001543     -0.005833      0.032093
Pd     12.29350     11.57466     10.89267         0.042264      0.004964      0.017479
Pd     12.93785     12.62841      6.60574        -0.016630     -0.003250      0.000588
Pd     13.93822      8.85321      7.58066        -0.026179      0.018466      0.005369
Pd      6.96792      8.48345      8.47510        -0.001108     -0.038175     -0.019722
Pd      5.55521     10.04519     10.18349        -0.021552     -0.011419     -0.039705
Pd      9.38154      9.48098      7.52933        -0.015935      0.000425      0.025935
Pd      8.49735      6.99777      6.96072        -0.001821     -0.001777     -0.023530
Pd      9.65607     11.94635     10.56901        -0.003022      0.010538      0.025011
Pd     11.76877     10.64701      8.08160         0.057923     -0.026641     -0.007279
Pd     11.74394      8.96265      5.90036         0.000860      0.014196     -0.000029
Pd     10.51511     11.34121      5.77500         0.020574      0.021655      0.003594
Ir     11.00842      9.69325     12.73210        -0.061508     -0.012855     -0.028610
Ir     13.17107      9.29915      9.96358         0.018163     -0.008752      0.021448
Ir     10.49684     12.14314     12.93619         0.019927      0.044615      0.013566
Ir      7.71377     11.02313      9.10426        -0.003483      0.039082     -0.036255
Ir      9.53972     12.09412      8.01269        -0.022076     -0.021095     -0.073359
Ir      8.05007      9.27151     10.78627        -0.001614     -0.066345      0.008349
