152
# total energy = -1110.35846441 eVH     10.35389      5.87395      7.64558        -0.340344     -0.163141      1.024794
H     10.62451     15.10445      7.64558         0.384459      0.091429      0.943921
H     10.62451      5.87395     13.33282        -0.303187     -0.721743     -1.419318
H     10.35389     15.10445     13.33282        -0.642743      0.370768     -0.319036
H      7.64558     10.35389      5.87395         0.545715     -0.543363     -0.081371
H      7.64558     10.62451     15.10445         0.352963     -0.242633      0.038493
H     13.33282     10.62451      5.87395        -0.518298      0.607216     -0.012660
H     13.33282     10.35389     15.10445        -0.533688      0.418238      0.163885
H      5.87395      7.64558     10.35389         0.139587      0.489223      0.034373
H     15.10445      7.64558     10.62451         0.429849      0.836058      0.248734
H      5.87395     13.33282     10.62451        -0.231106     -0.438641      0.364632
H     15.10445     13.33282     10.35389         0.031245     -0.311523     -0.391930
H      5.87395     10.35389      7.64558        -0.071928     -0.348715      1.446751
H     15.10445     10.62451      7.64558         0.197950      0.399431      1.248102
H      5.87395     10.62451     13.33282        -0.139693     -0.334006     -1.117512
H     15.10445     10.35389     13.33282         0.534631      0.880076     -1.517401
H     10.35389      7.64558      5.87395        -0.528820      0.494773     -0.200001
H     10.62451      7.64558     15.10445        -0.134987      0.556496      0.202185
H     10.62451     13.33282      5.87395         0.910827     -1.410570     -0.333282
H     10.35389     13.33282     15.10445         0.292368     -0.544566     -0.069872
H      7.64558      5.87395     10.35389         0.725995      0.173515     -0.138731
H      7.64558     15.10445     10.62451         1.969168      0.826553      0.182013
H     13.33282      5.87395     10.62451        -2.692188     -1.003105     -0.408870
H     13.33282     15.10445     10.35389        -0.868958     -0.040431     -0.254368
H     12.45634     12.45634     19.01126         0.271744      0.257897     -0.227522
H     19.01126     19.01126     19.01126        -0.266808     -0.254507     -0.237978
H     19.01126     12.45634     12.45634        -0.282805      0.281229      0.186966
H     12.45634     19.01126     12.45634         0.256014     -0.251905      0.235801
C     10.35284      5.61067      6.59456         0.101382     -0.497868     -1.258926
C     10.62556     15.36773      6.59456         0.163538      0.771431     -0.860008
C     10.62556      5.61067     14.38384         0.169772     -0.323661      1.824548
C     10.35284     15.36773     14.38384         0.123315      0.402388      1.812745
C      6.59456     10.35284      5.61067        -1.116970     -0.111318     -0.844197
C      6.59456     10.62556     15.36773        -0.673932     -0.108327      0.726213
C     14.38384     10.62556      5.61067         0.890207     -0.115629     -0.999524
C     14.38384     10.35284     15.36773         1.207960      0.164679      1.105591
C      5.61067      6.59456     10.35284        -0.692669     -0.792311     -0.159909
C     15.36773      6.59456     10.62556         1.940365     -0.185268     -0.175746
C      5.61067     14.38384     10.62556        -1.573157     -0.005179     -0.110177
C     15.36773     14.38384     10.35284         0.486690      0.046265      0.033463
C      5.61067     10.35284      6.59456        -0.269967      0.208359     -1.368576
C     15.36773     10.62556      6.59456         0.271688     -0.191002     -0.998815
C      5.61067     10.62556     14.38384        -0.282346      0.374263      1.409770
C     15.36773     10.35284     14.38384         0.074277     -0.429757      1.905417
C     10.35284      6.59456      5.61067        -0.204088     -0.932394     -0.695489
C     10.62556      6.59456     15.36773        -0.095367     -0.820464      1.041732
C     10.62556     14.38384      5.61067        -0.482975      2.057251     -0.783702
C     10.35284     14.38384     15.36773        -0.298586      1.485774      0.464332
C      6.59456      5.61067     10.35284        -0.959222     -0.412104      0.075700
C      6.59456     15.36773     10.62556        -1.351819      0.337812     -0.335765
C     14.38384      5.61067     10.62556         1.304084     -1.116285      0.143764
C     14.38384     15.36773     10.35284         0.398373      0.316833      0.054892
C     10.40319      3.19606      7.29314         0.003288      0.312735     -0.096736
C     10.35913      4.25547      6.23373         0.136471     -0.502426      0.032562
C      0.08601      7.29314      7.29314        -0.054454     -0.310558     -0.432435
C      0.13007      6.23373      6.23373        -0.127612      0.727454      0.047585
C      0.08601      3.19606      3.19606        -0.110874      1.624166      0.174376
C      0.13007      4.25547      4.25547        -0.088613     -0.411086     -1.253096
C     10.40319      7.29314      3.19606         0.016833     -0.421556      0.132350
C     10.35913      6.23373      4.25547         0.259826      0.077100     -0.482465
C      7.29314     10.40319      3.19606        -1.664886      0.004896      0.327691
C      6.23373     10.35913      4.25547         0.653738      0.078799     -0.613106
C      7.29314      0.08601      7.29314        -0.396915     -0.008712     -0.293836
C      6.23373      0.13007      6.23373         0.617267     -0.052552      0.276591
C      3.19606      0.08601      3.19606         0.662221     -0.014963      0.190401
C      4.25547      0.13007      4.25547        -0.375698     -0.059314     -0.481499
C      3.19606     10.40319      7.29314         0.383922      0.018287     -0.321427
C      4.25547     10.35913      6.23373        -0.730684      0.057683      0.378064
C      3.19606      7.29314     10.40319         0.307960     -0.220697     -0.005903
C      4.25547      6.23373     10.35913         0.055981      0.648981      0.094419
C      7.29314      7.29314      0.08601        -0.720100     -0.593060     -0.014943
C      6.23373      6.23373      0.13007         0.792036      1.153806     -0.079089
C      3.19606      3.19606      0.08601         0.804902      0.485136      0.013964
C      4.25547      4.25547      0.13007        -0.332600     -1.699485     -0.115734
C      7.29314      3.19606     10.40319        -0.334005      0.279845     -0.003225
C      6.23373      4.25547     10.35913         0.523138     -0.039695      0.228731
O     10.43466      3.58206      8.50569        -0.047166      0.180112      0.257508
O     10.54374     17.39634      8.50569         0.041037     -0.231014      0.485310
O     10.54374      3.58206     12.47271         0.086178     -0.056653     -0.043923
O     10.43466     17.39634     12.47271        -0.023004     -0.139676     -0.282149
O      8.50569     10.43466      3.58206         0.985475      0.181505      0.390822
O      8.50569     10.54374     17.39634         0.564087      0.083538     -0.226413
O     12.47271     10.54374      3.58206        -0.430634     -0.037807      0.189514
O     12.47271     10.43466     17.39634        -0.528161     -0.071057     -0.201303
O      3.58206      8.50569     10.43466         0.177913      0.442410     -0.031409
O     17.39634      8.50569     10.54374        -0.227494      0.715430      0.041389
O      3.58206     12.47271     10.54374         0.158380     -0.662724      0.023808
O     17.39634     12.47271     10.43466        -0.185510     -0.485575     -0.013555
O      3.58206     10.43466      8.50569         0.219866     -0.058794      0.399952
O     17.39634     10.54374      8.50569        -0.168968      0.036626      0.409099
O      3.58206     10.54374     12.47271         0.142369      0.020851     -0.309321
O     17.39634     10.43466     12.47271         0.066538     -0.050492     -0.089449
O     10.43466      8.50569      3.58206        -0.002750      0.276474      0.177242
O     10.54374      8.50569     17.39634         0.071163      0.441227     -0.184034
O     10.54374     12.47271      3.58206        -0.223076     -0.966035      0.347802
O     10.43466     12.47271     17.39634        -0.085466     -0.448901     -0.244704
O      8.50569      3.58206     10.43466         0.499620      0.194985     -0.013709
O      8.50569     17.39634     10.54374         0.656242     -0.191977      0.023157
O     12.47271      3.58206     10.54374        -0.734023      0.277415      0.036684
O     12.47271     17.39634     10.43466        -0.445423     -0.198216     -0.044531
O     11.90042     11.90042     19.56718        -0.344855     -0.307419      0.258317
O     19.56718     19.56718     19.56718         0.326066      0.310582      0.280994
O     19.56718     11.90042     11.90042         0.278697     -0.278747     -0.141279
O     11.90042     19.56718     11.90042        -0.307580      0.288743     -0.234113
O      9.45224      1.03696      9.45224        -0.056549      0.070462     -0.049235
O      1.03696      9.45224      9.45224         0.035006     -0.072235     -0.073943
O      1.03696      1.03696      1.03696         0.056777      0.137764      0.105548
O      9.45224      9.45224      1.03696        -0.130366     -0.088360      0.105077
Zr     10.48920      2.52580     10.48920         0.140997     -0.162383     -0.160589
Zr     10.48920     18.45260     10.48920        -0.090793      0.178614     -0.039494
Zr     10.48920     10.48920      2.52580         0.326407     -0.311228     -0.197773
Zr     10.48920     10.48920     18.45260         0.001255     -0.082942      0.211570
Zr      2.52580     10.48920     10.48920        -0.063633      0.160753     -0.049983
Zr     18.45260     10.48920     10.48920         0.134464     -0.120722     -0.246349
Ir     12.06147     12.49205     10.46443        -0.003004     -0.007277     -0.001470
Ir     11.13948      7.41763     10.33634         0.034203      0.000000     -0.019581
Ir      8.78714      7.40559     11.59692         0.034299     -0.020994     -0.017852
Ir      7.48368     11.66982      7.64938         0.007827     -0.006211      0.009786
Ir     11.59647     12.09804      7.12605        -0.002877     -0.004663     -0.003163
Ir     13.72832      8.96908      7.57188         0.017580      0.013494     -0.013807
Ir     12.51033     13.95296      8.42207        -0.008143      0.005064      0.001889
Ir      9.71522     11.26844      5.57167        -0.000311      0.001444      0.005081
Ir      9.08800     13.47299      7.07403        -0.004941      0.006297      0.002885
Ir      9.29441      9.66316      7.54171        -0.010518      0.000118     -0.004801
Ir     13.24347      7.04678     11.94750         0.018975     -0.017861      0.012305
Ir     13.52172      7.02090      9.12430         0.038339      0.010984     -0.005209
Ir     11.00362      7.61214     12.87435         0.019687     -0.003445     -0.010439
Ir     13.61785     11.55549      8.75923        -0.001289      0.002165     -0.004058
Ir     11.50671      9.66731      6.24139        -0.008788     -0.004820     -0.003773
Ir      7.13745      9.21775      8.95190         0.008454     -0.028094     -0.004970
Ir     14.05517     11.41405     11.66917         0.010554      0.007412     -0.006790
Ir     11.64772      9.88018      8.91299         0.000570     -0.012071     -0.016812
Ir      9.41928      9.54248     10.26172         0.007441     -0.017726     -0.014885
Ir     13.85029      9.38679     10.19561         0.005172      0.008751     -0.006809
Ir     13.79893      9.14925     12.92624        -0.001907      0.004521     -0.014561
Ir     11.67792      9.76604     11.58339         0.002440      0.002183     -0.011160
Ir      9.91338     11.76989      8.98255        -0.005371     -0.013839     -0.003921
Ir      9.00839      7.44685      8.86642         0.042577     -0.008429     -0.022079
Ir     11.47312      7.60710      7.80820         0.053464     -0.020231     -0.016545
Ir      9.23723      9.51980     13.02647         0.009762     -0.015050     -0.005979
Ir      7.53505     13.93785      8.98636        -0.006591     -0.015288      0.007581
Ir     10.91851     14.13996     11.94209        -0.015713     -0.019066      0.007547
Ir     10.13165     14.18636      9.52000        -0.004089     -0.010501      0.004931
Ir      9.80457     11.72044     11.72899        -0.008611     -0.012280     -0.002878
Ir      7.59050     11.61920     10.20829        -0.002464     -0.019139      0.005025
Ir      8.38499     13.78571     11.58443        -0.012947     -0.016622      0.003381
Ir      7.52974     11.62826     12.83099        -0.000096     -0.029510      0.001999
Ir      9.76163     11.65213     14.34581         0.004734     -0.011891     -0.004173
Ir     13.51043     13.87423     12.19586        -0.009772      0.003052     -0.003774
Ir     11.99571     12.06863     13.09094         0.005223     -0.013314     -0.004163
Ir     11.56311      9.83161     14.21762         0.002484     -0.010334     -0.002152
Ir      7.12970      9.43331     11.51102         0.011908     -0.033689     -0.004512
