152
# total energy = -1059.86226076 eVH     10.35389      5.87395      7.64558        -0.226624     -0.024645      1.145334
H     10.62451     15.10445      7.64558        -0.030180     -0.100189      0.913222
H     10.62451      5.87395     13.33282        -0.214745      0.095657     -0.794599
H     10.35389     15.10445     13.33282         0.065970     -0.282018     -0.902693
H      7.64558     10.35389      5.87395         0.904715     -0.067707      0.200005
H      7.64558     10.62451     15.10445         0.355841     -0.058639     -0.081548
H     13.33282     10.62451      5.87395        -0.836282      0.151763      0.197950
H     13.33282     10.35389     15.10445        -0.278430     -0.008315     -0.069981
H      5.87395      7.64558     10.35389         0.085140      0.404133     -0.050565
H     15.10445      7.64558     10.62451         0.053949      0.558101     -0.068043
H      5.87395     13.33282     10.62451        -0.010886     -0.986363      0.086451
H     15.10445     13.33282     10.35389        -0.058144     -0.323022     -0.001974
H      5.87395     10.35389      7.64558         0.271672      0.111434      0.427062
H     15.10445     10.62451      7.64558        -0.139103     -0.175642      0.638329
H      5.87395     10.62451     13.33282        -0.125740      0.513465     -0.576475
H     15.10445     10.35389     13.33282         0.274140     -0.651340     -0.781216
H     10.35389      7.64558      5.87395        -0.032793      0.508000      0.346629
H     10.62451      7.64558     15.10445         0.210811      0.793303     -0.051606
H     10.62451     13.33282      5.87395         0.099832     -0.529299      0.202801
H     10.35389     13.33282     15.10445         0.067615     -0.296128     -0.118798
H      7.64558      5.87395     10.35389         0.346148      0.079406     -0.030013
H      7.64558     15.10445     10.62451         0.368587     -0.101557      0.160107
H     13.33282      5.87395     10.62451        -0.308679      0.116060     -0.033321
H     13.33282     15.10445     10.35389        -0.650303     -0.126049      0.136810
H     12.45634     12.45634     19.01126         0.253761      0.270171     -0.230785
H     19.01126     19.01126     19.01126        -0.244721     -0.270886     -0.243909
H     19.01126     12.45634     12.45634        -0.253277      0.266809      0.237047
H     12.45634     19.01126     12.45634         0.287311     -0.236193      0.235328
C     10.35284      5.61067      6.59456         0.404698     -0.429760     -1.465671
C     10.62556     15.36773      6.59456        -0.164071      0.529721     -0.623132
C     10.62556      5.61067     14.38384         0.407442     -0.379430      0.868230
C     10.35284     15.36773     14.38384        -0.224454      0.209312      1.127218
C      6.59456     10.35284      5.61067        -1.349117      0.021701     -0.264833
C      6.59456     10.62556     15.36773        -0.674711      0.060558      0.376255
C     14.38384     10.62556      5.61067         1.231889     -0.134042     -0.587204
C     14.38384     10.35284     15.36773         0.417596     -0.110013      0.344178
C      5.61067      6.59456     10.35284        -0.319895     -0.550122      0.016820
C     15.36773      6.59456     10.62556         0.398969     -1.108882      0.030162
C      5.61067     14.38384     10.62556        -0.087999      1.158719     -0.189666
C     15.36773     14.38384     10.35284         0.473535      0.641341     -0.027380
C      5.61067     10.35284      6.59456        -0.343325     -0.116649     -0.740232
C     15.36773     10.62556      6.59456         0.422136      0.115365     -0.828946
C      5.61067     10.62556     14.38384        -0.396478     -0.197473      1.272258
C     15.36773     10.35284     14.38384         0.301953      0.184962      1.583236
C     10.35284      6.59456      5.61067        -0.054543     -0.764955     -0.699931
C     10.62556      6.59456     15.36773        -0.119065     -0.851043      0.337606
C     10.62556     14.38384      5.61067        -0.419499      0.448990     -0.682347
C     10.35284     14.38384     15.36773        -0.152144      0.598521      0.399966
C      6.59456      5.61067     10.35284        -0.442274     -0.337292      0.092357
C      6.59456     15.36773     10.62556        -0.462215      0.501438      0.039809
C     14.38384      5.61067     10.62556         0.441672     -0.414590      0.008526
C     14.38384     15.36773     10.35284         1.129817      0.550826     -0.066290
C     10.40319      3.19606      7.29314         0.005408      0.596135     -0.345360
C     10.35913      4.25547      6.23373        -0.019139     -0.469667      0.318652
C      0.08601      7.29314      7.29314        -0.016370     -0.336304     -0.484771
C      0.13007      6.23373      6.23373        -0.098276      0.801734      0.085048
C      0.08601      3.19606      3.19606        -0.001659      0.649189      0.274219
C      0.13007      4.25547      4.25547         0.014545     -0.289329     -0.456237
C     10.40319      7.29314      3.19606        -0.066477     -1.094641      0.517175
C     10.35913      6.23373      4.25547        -0.043803      0.401343     -0.170075
C      7.29314     10.40319      3.19606        -1.023141     -0.054038      0.175230
C      6.23373     10.35913      4.25547         0.340478      0.076947     -0.511418
C      7.29314      0.08601      7.29314        -0.383008      0.039017     -0.650747
C      6.23373      0.13007      6.23373         0.183778      0.137464      0.144751
C      3.19606      0.08601      3.19606         0.662921      0.022724      0.178656
C      4.25547      0.13007      4.25547        -0.163810     -0.041516     -0.352238
C      3.19606     10.40319      7.29314         0.382867     -0.022416     -0.860493
C      4.25547     10.35913      6.23373        -0.178130     -0.090750      0.097633
C      3.19606      7.29314     10.40319         0.586296     -0.371488     -0.003401
C      4.25547      6.23373     10.35913        -0.154677      0.165309      0.006677
C      7.29314      7.29314      0.08601        -0.392027     -0.355707     -0.014788
C      6.23373      6.23373      0.13007         0.236988      0.219329     -0.036098
C      3.19606      3.19606      0.08601         0.292404      0.482703     -0.021985
C      4.25547      4.25547      0.13007        -0.396000     -0.210691     -0.029363
C      7.29314      3.19606     10.40319        -0.282270      0.585384     -0.017603
C      6.23373      4.25547     10.35913        -0.008685     -0.173734      0.030866
O     10.43466      3.58206      8.50569        -0.033812      0.115850      0.350426
O     10.54374     17.39634      8.50569         0.079113     -0.143514      0.590164
O     10.54374      3.58206     12.47271         0.024634      0.109832     -0.385458
O     10.43466     17.39634     12.47271         0.088828     -0.057099     -0.350619
O      8.50569     10.43466      3.58206         0.725667     -0.071961      0.050873
O      8.50569     10.54374     17.39634         0.405783      0.044971     -0.052530
O     12.47271     10.54374      3.58206        -0.651873      0.101509      0.200954
O     12.47271     10.43466     17.39634        -0.304906     -0.001484      0.003563
O      3.58206      8.50569     10.43466         0.057455      0.457468     -0.056570
O     17.39634      8.50569     10.54374        -0.059550      0.476279      0.051052
O      3.58206     12.47271     10.54374         0.106203     -0.585477      0.007850
O     17.39634     12.47271     10.43466        -0.161562     -0.723406     -0.067054
O      3.58206     10.43466      8.50569         0.224977     -0.063917      0.788554
O     17.39634     10.54374      8.50569        -0.153142      0.084093      0.671604
O      3.58206     10.54374     12.47271         0.008411     -0.003384     -0.279396
O     17.39634     10.43466     12.47271         0.042658     -0.014032     -0.207760
O     10.43466      8.50569      3.58206        -0.126241      0.610835     -0.060494
O     10.54374      8.50569     17.39634         0.052947      0.495117     -0.115472
O     10.54374     12.47271      3.58206         0.102212     -0.629976      0.139270
O     10.43466     12.47271     17.39634        -0.062929     -0.614353     -0.217054
O      8.50569      3.58206     10.43466         0.398095      0.034330     -0.028021
O      8.50569     17.39634     10.54374         0.627447     -0.145015      0.051547
O     12.47271      3.58206     10.54374        -0.515161      0.123516      0.036188
O     12.47271     17.39634     10.43466        -0.616846     -0.152961      0.022595
O     11.90042     11.90042     19.56718        -0.278043     -0.313305      0.240705
O     19.56718     19.56718     19.56718         0.298548      0.321503      0.294580
O     19.56718     11.90042     11.90042         0.288389     -0.324547     -0.232565
O     11.90042     19.56718     11.90042        -0.319037      0.233940     -0.205397
O      9.45224      1.03696      9.45224        -0.082753      0.073229     -0.074230
O      1.03696      9.45224      9.45224         0.087890     -0.111808     -0.048293
O      1.03696      1.03696      1.03696         0.068819      0.042811      0.110084
O      9.45224      9.45224      1.03696        -0.048195     -0.120309      0.133969
Zr     10.48920      2.52580     10.48920         0.042748     -0.069843      0.048260
Zr     10.48920     18.45260     10.48920        -0.171349      0.259116     -0.320838
Zr     10.48920     10.48920      2.52580         0.112530      0.331982     -0.360155
Zr     10.48920     10.48920     18.45260        -0.063835     -0.170156      0.175731
Zr      2.52580     10.48920     10.48920        -0.235251      0.127871      0.209460
Zr     18.45260     10.48920     10.48920         0.231691     -0.109320      0.055026
Pd      9.35023     14.15388      9.48966         0.026610      0.037862     -0.039948
Pd      8.65674     13.67421     13.04008        -0.008766      0.023326     -0.051988
Pd     11.95848     14.43547      8.79978         0.043488     -0.006447     -0.045517
Pd     12.83093     12.78942     10.56801        -0.033754      0.007149      0.018326
Pd     12.22681      7.11275     12.67561        -0.043280     -0.014706     -0.052550
Pd     11.29831     14.73700     11.61486        -0.029062      0.045891     -0.048012
Pd     10.17457     12.39750     11.23786        -0.017668      0.025847     -0.056503
Pd     13.45136     12.12479      7.95884         0.009941      0.024101      0.001286
Pd     11.42852     11.53353      6.14407         0.025020      0.006415     -0.015947
Pd      7.81706      8.59049      7.61206         0.001709     -0.000225     -0.028784
Pd      8.75806     11.73764      6.95170        -0.028100     -0.020400     -0.032694
Pd     10.30038      9.45438      8.19016         0.008692      0.002019     -0.040694
Pd      8.50139     14.42644      6.96901         0.019913     -0.011586     -0.034410
Pd     12.31509      9.02700      6.59578         0.044652      0.000362     -0.004998
Pd      9.69971      9.56272      5.60796         0.027330      0.028186     -0.037749
Pd      6.85639      9.49898     12.17393         0.003005     -0.033943      0.004544
Pd     12.23269      6.63649      7.82261        -0.004865      0.030306      0.028804
Pd      5.97304     10.53964      9.73262         0.000419     -0.036424     -0.002174
Pd      7.52774      7.07476     12.94717         0.036989      0.008904      0.173721
Ir     11.89477      9.69894     13.05869        -0.041145     -0.003288      0.021061
Ir     13.63328      8.93949     11.41387        -0.010816      0.016131      0.009165
Ir      9.45759      8.74923     13.73259        -0.027475      0.054773      0.039441
Ir     10.60120     10.95424     14.78312        -0.035176     -0.018038      0.019069
Ir      7.34427     12.07158     11.40395        -0.034055     -0.009706     -0.038592
Ir     14.75438     10.76653      9.99984        -0.024996      0.025835      0.022824
Ir     12.23494     10.42662      9.66757        -0.014864      0.038838     -0.020686
Ir      8.77334     11.01077     13.06597         0.009415      0.001255     -0.020221
Ir     10.19808      9.78751     11.28703        -0.013435      0.030828     -0.015145
Ir     13.86709     11.32415     12.30573        -0.048837      0.021288      0.019650
Ir     11.83409     12.32467     13.12571        -0.062444     -0.022822     -0.003812
Ir      8.55479     11.03713      9.45863        -0.019541      0.058366     -0.026631
Ir     11.63572      7.93149     10.03258        -0.006899      0.014478      0.015174
Ir      7.18516     12.92212      8.70224         0.026355      0.027831      0.006439
Ir      9.51501      6.98150      9.05031        -0.004700      0.028244      0.016445
Ir      8.11875      8.69945     10.16870        -0.014078      0.012704     -0.042041
Ir     10.77699     12.06907      8.60578         0.002857      0.004096     -0.040695
Ir      9.70348      7.30231     11.59841        -0.084254      0.047127      0.011716
Ir     13.71408      8.64374      8.74690        -0.002460      0.012530      0.034706
