8
# total energy = -53.45722777 eVC      1.14292     13.16638      0.00000         0.000000      0.073281      0.000000
C      1.14292      4.11982     -0.00000         0.000000     -0.073281     -0.000000
O      1.14292      5.30513      0.00000         0.000000      0.470283      0.000000
O      1.14292     11.98107     -0.00000         0.000000     -0.470283      0.000000
O     -0.00000     13.93313      0.00000         0.000000      0.309721      0.000000
O      0.00000      3.35307     -0.00000         0.000000     -0.309721      0.000000
Ir     -0.00000      8.64310      0.00000         0.000000      0.000000      0.000000
Ir     -0.00000      0.00000      0.00000         0.000000      0.000000      0.000000
