26
# total energy = -177.58647641 eVH      0.08800      6.30342      7.50000        -0.027504     -0.005212      0.000000
H      2.97808      1.80412      7.50000        -0.019947      0.014618      0.000000
H      5.46065      5.37366      7.50000         0.035556      0.015317     -0.000000
H      8.38371     -2.58978      7.50000         0.027504      0.005212      0.000000
H      5.49363      1.90952      7.50000         0.019947     -0.014618      0.000000
H      3.01106     -1.66002      7.50000        -0.035556     -0.015317      0.000000
C      7.54969      2.58161      7.50000        -0.024214     -0.000676     -0.000000
C      1.43264     -0.23591      7.50000         0.006173     -0.022410     -0.000000
C      7.96268     -4.70053      7.50000        -0.007498      0.022646      0.000000
C      0.92202      1.13203      7.50000         0.024214      0.000676      0.000000
C      7.03907      3.94955      7.50000        -0.006173      0.022410      0.000000
C      0.50903      8.41418      7.50000         0.007498     -0.022646      0.000000
C      7.58433     -3.32596      7.50000         0.001838     -0.005271      0.000000
C      6.53309      1.57916      7.50000        -0.021876     -0.004489      0.000000
C      2.79780     -0.58442      7.50000         0.006578     -0.011832      0.000000
C      0.88738      7.03961      7.50000        -0.001838      0.005271      0.000000
C      1.93862      2.13449      7.50000         0.021876      0.004489     -0.000000
C      5.67391      4.29806      7.50000        -0.006578      0.011832     -0.000000
O      6.39077     -2.81099      7.50000         0.010442      0.004452     -0.000000
O      6.73223      0.29701      7.50000        -0.026432      0.012959     -0.000000
O      3.89517      0.13000      7.50000         0.005176     -0.000110      0.000000
O      2.08094      6.52463      7.50000        -0.010442     -0.004452      0.000000
O      1.73948      3.41663      7.50000         0.026432     -0.012959     -0.000000
O      4.57654      3.58365      7.50000        -0.005176      0.000110     -0.000000
Ir      5.42486     -1.15734      7.50000        -0.003276     -0.002438     -0.000000
Ir      3.04685      4.87098      7.50000         0.003276      0.002438     -0.000000
