32
# total energy = -234.69235327 eVH      7.29829     -2.19587     -0.00000         0.014123      0.003716     -0.000000
H      0.33107      4.60045     -0.00000        -0.014123     -0.003716     -0.000000
H      4.72027      5.98381     -0.00000         0.013701      0.005053     -0.000000
H      2.90909     -3.57923     -0.00000        -0.013701     -0.005053     -0.000000
C      6.12692     -3.80100     -0.00000         0.003737     -0.032923     -0.000000
C      1.50244      6.20558      0.00000        -0.003737      0.032923      0.000000
C      2.84022      6.62721     -0.00000        -0.015816      0.029116     -0.000000
C      4.78914     -4.22264      0.00000         0.015816     -0.029116      0.000000
C      6.95993      2.19359     -0.00000        -0.069827     -0.022008     -0.000000
C      4.49176      1.41569     -0.00000         0.013798      0.004349      0.000000
C      0.66943      0.21099     -0.00000         0.069827      0.022008     -0.000000
C      3.13760      0.98889     -0.00000        -0.013798     -0.004349     -0.000000
C      5.81894     -5.15694     -0.00000        -0.007224      0.022920     -0.000000
C      1.81042      7.56151     -0.00000         0.007224     -0.022920     -0.000000
N      4.70392      2.79074      0.00000         0.028849     -0.022037     -0.000000
N      6.02766      3.18238     -0.00000         0.011923     -0.033212      0.000000
N      6.32959     -2.49216      0.00000         0.020553     -0.005183      0.000000
N      2.92544     -0.38617     -0.00000        -0.028849      0.022037     -0.000000
N      1.60170     -0.77781      0.00000        -0.011923      0.033212     -0.000000
N      1.29977      4.89674      0.00000        -0.020553      0.005183     -0.000000
N      5.45403      0.41078     -0.00000         0.010999      0.034596     -0.000000
N      6.76311      0.84893     -0.00000        -0.009275      0.034047      0.000000
N      3.75674      5.67111     -0.00000         0.013867      0.016031     -0.000000
N      2.17534      1.99380     -0.00000        -0.010999     -0.034596     -0.000000
N      0.86626      1.55564      0.00000         0.009275     -0.034047     -0.000000
N      3.87262     -3.26653     -0.00000        -0.013867     -0.016031      0.000000
O      1.42110      8.79677     -0.00000        -0.001540      0.004887     -0.000000
O      6.20827     -6.39220     -0.00000         0.001540     -0.004887     -0.000000
Ir      6.81487     -8.31685     -0.00000         0.003963     -0.012575     -0.000000
Ir      0.81450     10.72143     -0.00000        -0.003963      0.012575     -0.000000
Ir      2.98809      3.82494     -0.00000         0.001015     -0.003221     -0.000000
Ir      4.64127     -1.42036     -0.00000        -0.001015      0.003221     -0.000000
