152
# total energy = -1061.44465377 eVH     10.35389      5.87395      7.64558        -0.196979      0.129296      1.016760
H     10.62451     15.10445      7.64558         0.445577     -0.121478      0.787816
H     10.62451      5.87395     13.33282        -0.088740      0.101881     -0.451428
H     10.35389     15.10445     13.33282         0.084680     -0.194204     -0.407516
H      7.64558     10.35389      5.87395         0.885755      0.202973      0.222063
H      7.64558     10.62451     15.10445         0.210159     -0.023350     -0.069780
H     13.33282     10.62451      5.87395        -0.596716     -0.045753      0.169538
H     13.33282     10.35389     15.10445        -0.323587     -0.054513     -0.076719
H      5.87395      7.64558     10.35389         0.127634      0.363205     -0.077804
H     15.10445      7.64558     10.62451        -0.137456      0.435783      0.174207
H      5.87395     13.33282     10.62451         0.106760     -0.645974      0.132647
H     15.10445     13.33282     10.35389        -0.228185     -0.432276      0.091136
H      5.87395     10.35389      7.64558         0.153279      0.288290      0.390781
H     15.10445     10.62451      7.64558        -0.141123     -0.354267      0.733865
H      5.87395     10.62451     13.33282         0.035857      0.149528     -0.712818
H     15.10445     10.35389     13.33282         0.073718     -0.240477     -0.727306
H     10.35389      7.64558      5.87395        -0.161254      0.446798      0.212284
H     10.62451      7.64558     15.10445         0.370096      0.608960     -0.120150
H     10.62451     13.33282      5.87395         0.061737     -0.557071      0.098960
H     10.35389     13.33282     15.10445         0.259703     -0.715460     -0.090458
H      7.64558      5.87395     10.35389         0.490807      0.146186     -0.156910
H      7.64558     15.10445     10.62451         0.399601     -0.143804      0.455727
H     13.33282      5.87395     10.62451        -0.393192      0.161470     -0.078570
H     13.33282     15.10445     10.35389        -0.585537     -0.292376      0.121907
H     12.45634     12.45634     19.01126         0.230575      0.265470     -0.249405
H     19.01126     19.01126     19.01126        -0.262076     -0.259223     -0.230594
H     19.01126     12.45634     12.45634        -0.234714      0.276253      0.234711
H     12.45634     19.01126     12.45634         0.275467     -0.210853      0.256103
C     10.35284      5.61067      6.59456         0.269820     -0.301810     -0.768478
C     10.62556     15.36773      6.59456        -0.191207      0.633579     -0.306956
C     10.62556      5.61067     14.38384         0.251484     -0.233158      0.487776
C     10.35284     15.36773     14.38384        -0.111321      0.281873      0.292649
C      6.59456     10.35284      5.61067        -0.833413     -0.091475     -0.242449
C      6.59456     10.62556     15.36773        -0.517738      0.047319      0.351528
C     14.38384     10.62556      5.61067         0.784195     -0.030942     -0.626390
C     14.38384     10.35284     15.36773         0.268475     -0.071122      0.347476
C      5.61067      6.59456     10.35284        -0.412041     -0.359716      0.078932
C     15.36773      6.59456     10.62556         0.325271     -0.463839     -0.061325
C      5.61067     14.38384     10.62556        -0.151365      0.475411     -0.424711
C     15.36773     14.38384     10.35284         0.404727      0.808734     -0.095500
C      5.61067     10.35284      6.59456        -0.321454     -0.175400     -0.105281
C     15.36773     10.62556      6.59456         0.207869      0.277630     -0.579541
C      5.61067     10.62556     14.38384        -0.348228     -0.040457      1.219670
C     15.36773     10.35284     14.38384         0.294872     -0.067847      0.985606
C     10.35284      6.59456      5.61067         0.082583     -0.237183     -0.500685
C     10.62556      6.59456     15.36773         0.014259     -0.776369      0.110301
C     10.62556     14.38384      5.61067        -0.382150      0.197179     -0.927425
C     10.35284     14.38384     15.36773        -0.259091      0.834337      0.267733
C      6.59456      5.61067     10.35284        -0.353975     -0.292008      0.259870
C      6.59456     15.36773     10.62556        -0.245406      0.511783     -0.074662
C     14.38384      5.61067     10.62556         0.479857     -0.386995      0.059193
C     14.38384     15.36773     10.35284         0.975120      0.275105     -0.067751
C     10.40319      3.19606      7.29314         0.007788      0.545972     -0.311407
C     10.35913      4.25547      6.23373        -0.012893     -0.520667      0.407180
C      0.08601      7.29314      7.29314        -0.015470     -0.840744     -0.567201
C      0.13007      6.23373      6.23373        -0.195748      0.878113      0.153211
C      0.08601      3.19606      3.19606        -0.009537      0.417837      0.390703
C      0.13007      4.25547      4.25547         0.067879     -0.237864     -0.563534
C     10.40319      7.29314      3.19606        -0.044894     -0.997101      0.796039
C     10.35913      6.23373      4.25547         0.019128      0.331186     -0.233743
C      7.29314     10.40319      3.19606        -1.337853     -0.084646      0.329049
C      6.23373     10.35913      4.25547         0.264104      0.017260     -0.704820
C      7.29314      0.08601      7.29314        -0.833196     -0.002549     -0.407926
C      6.23373      0.13007      6.23373         0.324607      0.052333      0.126488
C      3.19606      0.08601      3.19606         0.318912      0.000020      0.436119
C      4.25547      0.13007      4.25547        -0.285654     -0.032178     -0.175722
C      3.19606     10.40319      7.29314         0.492464     -0.040623     -1.030503
C      4.25547     10.35913      6.23373        -0.326226     -0.076892      0.097187
C      3.19606      7.29314     10.40319         1.070504     -0.444606      0.013800
C      4.25547      6.23373     10.35913        -0.193514      0.168955     -0.000971
C      7.29314      7.29314      0.08601        -0.518680     -0.280437     -0.007567
C      6.23373      6.23373      0.13007         0.159965      0.195697     -0.160492
C      3.19606      3.19606      0.08601         0.359148      0.888833     -0.008273
C      4.25547      4.25547      0.13007        -0.605406     -0.174499      0.037246
C      7.29314      3.19606     10.40319        -0.200518      0.490573      0.026602
C      6.23373      4.25547     10.35913        -0.010493     -0.366001      0.043221
O     10.43466      3.58206      8.50569        -0.023491      0.133013      0.388449
O     10.54374     17.39634      8.50569         0.040738      0.050895      0.369994
O     10.54374      3.58206     12.47271         0.040674      0.194854     -0.575376
O     10.43466     17.39634     12.47271         0.030731     -0.027284     -0.488151
O      8.50569     10.43466      3.58206         0.778357     -0.060252     -0.027534
O      8.50569     10.54374     17.39634         0.857099      0.021219     -0.164583
O     12.47271     10.54374      3.58206        -0.347071      0.035166      0.082615
O     12.47271     10.43466     17.39634        -0.377750     -0.036875      0.038901
O      3.58206      8.50569     10.43466        -0.099634      0.267284     -0.079843
O     17.39634      8.50569     10.54374        -0.102397      0.444188      0.044876
O      3.58206     12.47271     10.54374         0.151688     -0.826960     -0.021442
O     17.39634     12.47271     10.43466        -0.237082     -0.631319     -0.017921
O      3.58206     10.43466      8.50569         0.127208     -0.032176      0.793531
O     17.39634     10.54374      8.50569         0.003552      0.037077      0.335557
O      3.58206     10.54374     12.47271         0.065965      0.018501     -0.458891
O     17.39634     10.43466     12.47271         0.059139      0.012069     -0.239677
O     10.43466      8.50569      3.58206        -0.054217      0.541199     -0.068850
O     10.54374      8.50569     17.39634         0.029019      0.863167     -0.203831
O     10.54374     12.47271      3.58206         0.070662     -0.368643      0.070488
O     10.43466     12.47271     17.39634        -0.055392     -0.640826     -0.197983
O      8.50569      3.58206     10.43466         0.353348      0.084615     -0.051645
O      8.50569     17.39634     10.54374         0.569931     -0.170773     -0.020640
O     12.47271      3.58206     10.54374        -0.367533      0.048579      0.036698
O     12.47271     17.39634     10.43466        -0.823181     -0.144137      0.077087
O     11.90042     11.90042     19.56718        -0.244100     -0.283089      0.237980
O     19.56718     19.56718     19.56718         0.300544      0.292185      0.250035
O     19.56718     11.90042     11.90042         0.228746     -0.305481     -0.275341
O     11.90042     19.56718     11.90042        -0.274857      0.180668     -0.277291
O      9.45224      1.03696      9.45224        -0.107290      0.085702     -0.086406
O      1.03696      9.45224      9.45224         0.120309     -0.152054     -0.173742
O      1.03696      1.03696      1.03696         0.138541      0.209573     -0.002140
O      9.45224      9.45224      1.03696        -0.211202     -0.173662      0.027495
Zr     10.48920      2.52580     10.48920        -0.005236     -0.233341      0.145703
Zr     10.48920     18.45260     10.48920        -0.294706      0.312316     -0.152094
Zr     10.48920     10.48920      2.52580         0.367003      0.380573     -0.228980
Zr     10.48920     10.48920     18.45260         0.003741      0.023738      0.469081
Zr      2.52580     10.48920     10.48920        -0.560504      0.018316      0.338301
Zr     18.45260     10.48920     10.48920         0.270697     -0.140327      0.002267
Pd      9.22660     14.67298      9.22823         0.008354      0.000833      0.000975
Pd      8.46994     13.20673     13.82649         0.003976      0.002856      0.002536
Pd     12.14078     14.13584      8.66531        -0.003992     -0.015670      0.005341
Pd     12.24832     12.75364     10.89522        -0.015703      0.000925     -0.009210
Pd     11.76827      7.07167     11.87017         0.005212     -0.012822      0.008076
Pd     11.17830     15.30901     10.96090         0.002738     -0.000896      0.010223
Pd      9.60469     13.16350     11.40775         0.001905      0.000500      0.002421
Pd     14.01893     12.40265      7.97459         0.001472      0.008366      0.007161
Pd     11.57061     11.78403      6.75104        -0.000082     -0.007615      0.006212
Pd      7.41309      8.53519      7.19384         0.001479     -0.000180      0.003242
Pd      8.59267     12.10994      6.92131         0.007977      0.008706     -0.007382
Pd      9.69951      9.91341      7.99717         0.000785      0.003414      0.000421
Pd      8.47440     14.76196      6.58777         0.005673     -0.006705      0.009319
Pd     12.00691      9.07092      6.82946         0.004874      0.000196      0.011783
Pd      9.89606     10.07264      5.40297        -0.007717      0.016473     -0.008306
Pd      6.89377      9.21430     12.17407         0.006156      0.005310      0.001030
Pd     12.40346      6.54058      7.65737         0.002415      0.009494     -0.007592
Pd      5.56575     10.69176     10.11337        -0.016537     -0.005865      0.000328
Pd      7.56709      6.65783     12.69300         0.005694      0.004355     -0.004507
Ir     11.27215      9.53249     12.83372        -0.004849     -0.002462      0.010904
Ir     13.06235      9.22766     11.07013        -0.009502     -0.002005      0.006436
Ir      9.14545      8.41847     13.75450        -0.008559     -0.006431     -0.006522
Ir     10.27147     10.36980     15.06371        -0.005793     -0.009533     -0.002238
Ir      7.09521     11.91149     11.85300         0.006370     -0.007029      0.007364
Ir     14.39943     11.18125     10.31347         0.001294      0.006999     -0.004577
Ir     12.25982     10.62974      9.04984         0.003447     -0.001344      0.008270
Ir      8.91864     10.78731     12.89077         0.005723     -0.008545      0.006971
Ir     10.00942     10.29743     10.61027        -0.009966     -0.008364     -0.003777
Ir     13.29300     11.18706     12.60337        -0.003245     -0.011189      0.013543
Ir     11.09021     12.03712     13.32042         0.005111     -0.012190      0.001263
Ir      7.94515     11.74551      9.51598         0.001237     -0.002146      0.003757
Ir     11.26159      8.16329      9.42837        -0.005136     -0.003980     -0.008519
Ir      6.98202     13.62622      8.39912        -0.001686      0.002588      0.012745
Ir      9.04167      7.29168      8.79119         0.004044      0.007582      0.004490
Ir      7.72745      9.22034      9.70853         0.002658      0.012457     -0.005021
Ir     10.34987     12.34957      8.98074         0.001974      0.009567      0.003959
Ir      9.31665      7.90178     11.24629        -0.012343     -0.002559      0.012590
Ir     13.72985      8.48532      8.78017         0.005079      0.011588     -0.003726
