152
# total energy = -1022.55517661 eVH     10.35389      5.87395      7.64558         0.437334     -0.021527      1.016847
H     10.62451     15.10445      7.64558         0.023108     -0.047547      0.650970
H     10.62451      5.87395     13.33282         0.133267      0.110745     -0.623951
H     10.35389     15.10445     13.33282        -0.265551     -0.068085     -0.553263
H      7.64558     10.35389      5.87395         0.369824     -0.058892      0.193409
H      7.64558     10.62451     15.10445         0.622185     -0.146434     -0.120115
H     13.33282     10.62451      5.87395        -1.008802     -0.470756      0.028466
H     13.33282     10.35389     15.10445        -0.480705     -0.070575     -0.049686
H      5.87395      7.64558     10.35389         0.056309      1.236010     -0.085681
H     15.10445      7.64558     10.62451        -0.169157      0.396416     -0.076479
H      5.87395     13.33282     10.62451         0.144674     -0.387655     -0.066802
H     15.10445     13.33282     10.35389        -0.081640     -0.993052     -0.308348
H      5.87395     10.35389      7.64558         0.119790     -0.008800      0.418679
H     15.10445     10.62451      7.64558         0.118106     -0.128128      0.772888
H      5.87395     10.62451     13.33282         0.267912     -0.050033     -0.418530
H     15.10445     10.35389     13.33282        -0.169185      0.048218     -0.633125
H     10.35389      7.64558      5.87395         0.180910      0.898510      0.064344
H     10.62451      7.64558     15.10445         0.008314      0.691313     -0.115445
H     10.62451     13.33282      5.87395         0.287813     -0.535024      0.189362
H     10.35389     13.33282     15.10445        -0.195578     -0.917113     -0.118494
H      7.64558      5.87395     10.35389         0.496084      0.048760     -0.161132
H      7.64558     15.10445     10.62451         0.917716     -0.191096      0.260540
H     13.33282      5.87395     10.62451        -0.425958      0.192574     -0.069064
H     13.33282     15.10445     10.35389        -0.997116     -0.055682      0.261444
H     12.45634     12.45634     19.01126         0.271757      0.258582     -0.220009
H     19.01126     19.01126     19.01126        -0.249385     -0.235376     -0.261593
H     19.01126     12.45634     12.45634        -0.244143      0.272771      0.235221
H     12.45634     19.01126     12.45634         0.206671     -0.284776      0.256843
C     10.35284      5.61067      6.59456        -0.067862     -0.471123     -0.687871
C     10.62556     15.36773      6.59456         0.020528      0.333536     -0.933448
C     10.62556      5.61067     14.38384        -0.008642     -0.280572      0.740780
C     10.35284     15.36773     14.38384         0.220639      0.714899      0.071719
C      6.59456     10.35284      5.61067        -0.549122     -0.038224     -0.241512
C      6.59456     10.62556     15.36773        -0.846234      0.135130      0.399225
C     14.38384     10.62556      5.61067         1.007491      0.290530     -0.316761
C     14.38384     10.35284     15.36773         0.755638     -0.117841      0.424400
C      5.61067      6.59456     10.35284        -0.390280     -0.916342      0.208209
C     15.36773      6.59456     10.62556         0.203988     -0.482003      0.040128
C      5.61067     14.38384     10.62556        -0.251728      0.382132     -0.010637
C     15.36773     14.38384     10.35284         0.325705      0.313968      0.257153
C      5.61067     10.35284      6.59456        -0.329281      0.009862     -0.830770
C     15.36773     10.62556      6.59456         0.534219     -0.160238     -1.203456
C      5.61067     10.62556     14.38384        -0.505031      0.008446      1.062839
C     15.36773     10.35284     14.38384         0.544525     -0.193764      1.317093
C     10.35284      6.59456      5.61067        -0.012538     -1.077812     -0.708185
C     10.62556      6.59456     15.36773         0.054089     -0.865321      0.370724
C     10.62556     14.38384      5.61067        -0.031582      1.375430     -0.722794
C     10.35284     14.38384     15.36773         0.059208      0.635579      0.596882
C      6.59456      5.61067     10.35284        -0.126209     -0.902457      0.133414
C      6.59456     15.36773     10.62556        -1.731783      0.488910      0.049501
C     14.38384      5.61067     10.62556         0.557861     -0.225318      0.002914
C     14.38384     15.36773     10.35284         0.434510      0.503617     -0.216810
C     10.40319      3.19606      7.29314         0.017925      0.967819     -0.231461
C     10.35913      4.25547      6.23373        -0.038848     -0.295379      0.727375
C      0.08601      7.29314      7.29314        -0.010874     -0.222823     -0.462612
C      0.13007      6.23373      6.23373        -0.013130      0.142931      0.176139
C      0.08601      3.19606      3.19606        -0.022831      0.706416      0.152987
C      0.13007      4.25547      4.25547        -0.103042     -0.191757     -0.161160
C     10.40319      7.29314      3.19606        -0.002813     -0.653938      0.488381
C     10.35913      6.23373      4.25547         0.002426      0.560367     -0.315907
C      7.29314     10.40319      3.19606        -0.400197      0.018301      0.886736
C      6.23373     10.35913      4.25547         0.235446     -0.004701     -0.175434
C      7.29314      0.08601      7.29314        -0.305336     -0.052861     -0.241956
C      6.23373      0.13007      6.23373         0.284898     -0.085678      0.251051
C      3.19606      0.08601      3.19606         0.340429     -0.057520      1.342380
C      4.25547      0.13007      4.25547        -0.181397     -0.014136     -0.438021
C      3.19606     10.40319      7.29314         0.743543      0.017567     -0.259956
C      4.25547     10.35913      6.23373        -0.120874      0.038925      0.122159
C      3.19606      7.29314     10.40319         0.535292     -1.242253      0.040212
C      4.25547      6.23373     10.35913        -0.752445      0.725577      0.028488
C      7.29314      7.29314      0.08601        -0.647045     -0.186359     -0.024202
C      6.23373      6.23373      0.13007         0.172624      0.260490     -0.013933
C      3.19606      3.19606      0.08601         0.254920      0.262937     -0.019564
C      4.25547      4.25547      0.13007        -0.054467     -0.034035      0.014779
C      7.29314      3.19606     10.40319        -0.348308      0.709289      0.028999
C      6.23373      4.25547     10.35913         0.731723     -0.210052      0.029561
O     10.43466      3.58206      8.50569        -0.054930      0.022907      0.285783
O     10.54374     17.39634      8.50569        -0.020263     -0.193984      0.614684
O     10.54374      3.58206     12.47271         0.066262      0.047118     -0.293189
O     10.43466     17.39634     12.47271        -0.024124     -0.126480     -0.557963
O      8.50569     10.43466      3.58206         0.395280     -0.009263     -0.010092
O      8.50569     10.54374     17.39634         0.465165      0.058766     -0.144439
O     12.47271     10.54374      3.58206        -0.221246      0.066673     -0.113742
O     12.47271     10.43466     17.39634        -0.849068      0.026088     -0.209577
O      3.58206      8.50569     10.43466         0.033270      0.888755      0.041807
O     17.39634      8.50569     10.54374        -0.031354      0.351955      0.080388
O      3.58206     12.47271     10.54374         0.064484     -0.430355      0.059229
O     17.39634     12.47271     10.43466        -0.158022     -0.719963      0.012072
O      3.58206     10.43466      8.50569        -0.055135     -0.061349      0.227456
O     17.39634     10.54374      8.50569        -0.134292      0.042860      0.441903
O      3.58206     10.54374     12.47271        -0.057147     -0.059328     -0.866363
O     17.39634     10.43466     12.47271        -0.192906      0.042686     -0.762703
O     10.43466      8.50569      3.58206         0.027689      0.675055      0.199335
O     10.54374      8.50569     17.39634         0.054658      0.399070     -0.070523
O     10.54374     12.47271      3.58206        -0.043909     -0.741142      0.249385
O     10.43466     12.47271     17.39634         0.060933     -0.849480     -0.280042
O      8.50569      3.58206     10.43466         0.495572      0.092572     -0.041442
O      8.50569     17.39634     10.54374         0.656621     -0.236032     -0.057473
O     12.47271      3.58206     10.54374        -0.508200      0.158235      0.041493
O     12.47271     17.39634     10.43466        -0.478217     -0.031984     -0.043819
O     11.90042     11.90042     19.56718        -0.307862     -0.310530      0.259666
O     19.56718     19.56718     19.56718         0.291956      0.274706      0.321274
O     19.56718     11.90042     11.90042         0.281828     -0.329077     -0.233616
O     11.90042     19.56718     11.90042        -0.220671      0.294496     -0.242266
O      9.45224      1.03696      9.45224        -0.071044      0.060789     -0.065179
O      1.03696      9.45224      9.45224         0.069688     -0.142382     -0.050184
O      1.03696      1.03696      1.03696         0.046026      0.030620      0.189789
O      9.45224      9.45224      1.03696        -0.035186     -0.085757      0.133689
Zr     10.48920      2.52580     10.48920        -0.000610     -0.073480     -0.028216
Zr     10.48920     18.45260     10.48920         0.033154      0.290391     -0.066192
Zr     10.48920     10.48920      2.52580        -0.072420     -0.030296     -0.368404
Zr     10.48920     10.48920     18.45260        -0.151001     -0.197621      0.300659
Zr      2.52580     10.48920     10.48920        -0.322389      0.342152     -0.482863
Zr     18.45260     10.48920     10.48920         0.214642      0.039618     -0.297054
Pd      9.04540     10.27902     13.44985         0.003707      0.006036     -0.030072
Pd     10.63799      9.72254     11.20498         0.011578      0.001105     -0.063708
Pd     13.76798      8.53855     12.79082        -0.005391      0.001917     -0.026347
Pd     11.01358     11.12771     15.09695        -0.006133     -0.012348     -0.020507
Pd     12.82247     11.16446     13.05364         0.010099      0.014910      0.005794
Pd     14.99195     10.83194     11.37381        -0.015790      0.038512     -0.006583
Pd      6.68125      7.40676     12.31400        -0.002176      0.002951      0.004829
Pd      9.27450      7.32400     10.23829        -0.031021     -0.041870     -0.026885
Pd      9.25025      7.64487     12.89993         0.007666     -0.008009     -0.016889
Pd     11.71957      7.26426     11.60674        -0.008181      0.002567     -0.040447
Pd     11.45668      7.86793      8.94267        -0.074285      0.073323     -0.016697
Pd      7.21984     11.83616     12.05185         0.006938     -0.015269     -0.036277
Pd      8.91429     14.65181      9.33509        -0.016597     -0.001591     -0.002310
Pd      8.43865     12.72407     14.35049        -0.005560     -0.018428     -0.008636
Pd     13.24604     13.94964      8.68590         0.058237      0.030627     -0.032343
Pd     10.79259     13.11502      8.44389         0.024886      0.060633      0.006448
Pd     14.04358     11.41252      8.99231         0.011656      0.022452     -0.027172
Pd      8.64048     14.09337     12.07739        -0.006821      0.001608      0.003595
Pd     12.23399     13.75048     13.98278         0.001594      0.006773      0.013406
Pd     11.15483     14.37416     11.04524        -0.005509      0.014875      0.013015
Pd     14.06100     13.45173     12.14250         0.010271      0.039911      0.019899
Pd     12.26319     12.07967     10.68816         0.038297      0.018883     -0.004231
Pd     12.49200     12.00405      6.83110         0.030783      0.082385     -0.042378
Pd     13.57927      8.96630      7.87698        -0.001647     -0.021446      0.023565
Pd      6.92524      8.41356      8.95008        -0.040370      0.030667     -0.024644
Pd      5.51537      9.86868     11.34816         0.028279      0.012270     -0.026674
Pd      8.94233      9.91774      8.10874         0.062312     -0.058110      0.078152
Pd      9.01068      7.38148      7.57127        -0.075347     -0.051899     -0.020583
Pd      9.42650     12.00074     10.44646         0.036650      0.019209     -0.008885
Pd     11.36995     10.51661      8.77382         0.060820      0.086192     -0.032102
Pd     11.09135      9.36791      6.46636         0.023278     -0.015919     -0.003797
Pd      9.69659     11.72250      6.26161         0.025829     -0.035446      0.034830
Ir     11.37310      9.07502     13.54931         0.000218      0.008380     -0.044525
Ir     13.07294      9.37362     10.44767        -0.002870      0.025389     -0.015145
Ir     10.52242     12.34642     12.70526         0.018569      0.011427      0.009631
Ir      7.03321     10.97101      9.59166        -0.014448     -0.052159      0.043810
Ir      8.21099     12.46232      8.20904         0.074662      0.022676     -0.026342
Ir      8.09722      9.35679     11.18627        -0.041699      0.016305     -0.041145
