152
# total energy = -1110.36740265 eVH     10.35389      5.87395      7.64558        -0.346118     -0.154136      1.040604
H     10.62451     15.10445      7.64558         0.376226      0.087581      0.944442
H     10.62451      5.87395     13.33282        -0.310672     -0.710289     -1.404412
H     10.35389     15.10445     13.33282        -0.634182      0.386952     -0.323019
H      7.64558     10.35389      5.87395         0.543331     -0.538669     -0.083663
H      7.64558     10.62451     15.10445         0.360770     -0.241336      0.041010
H     13.33282     10.62451      5.87395        -0.532216      0.616634     -0.020688
H     13.33282     10.35389     15.10445        -0.530182      0.414683      0.163041
H      5.87395      7.64558     10.35389         0.142545      0.504880      0.034888
H     15.10445      7.64558     10.62451         0.430930      0.878536      0.255342
H      5.87395     13.33282     10.62451        -0.228208     -0.453063      0.363666
H     15.10445     13.33282     10.35389         0.030900     -0.309599     -0.390396
H      5.87395     10.35389      7.64558        -0.073028     -0.356171      1.439469
H     15.10445     10.62451      7.64558         0.205150      0.425765      1.267261
H      5.87395     10.62451     13.33282        -0.156754     -0.342480     -1.138696
H     15.10445     10.35389     13.33282         0.544955      0.895572     -1.517217
H     10.35389      7.64558      5.87395        -0.537259      0.498019     -0.192717
H     10.62451      7.64558     15.10445        -0.137870      0.534497      0.194769
H     10.62451     13.33282      5.87395         0.901329     -1.398954     -0.328699
H     10.35389     13.33282     15.10445         0.278879     -0.549177     -0.076539
H      7.64558      5.87395     10.35389         0.719954      0.173548     -0.144070
H      7.64558     15.10445     10.62451         1.973860      0.808817      0.194112
H     13.33282      5.87395     10.62451        -2.694378     -0.983999     -0.438524
H     13.33282     15.10445     10.35389        -0.871998     -0.043495     -0.253289
H     12.45634     12.45634     19.01126         0.271838      0.257728     -0.227488
H     19.01126     19.01126     19.01126        -0.266753     -0.254750     -0.238203
H     19.01126     12.45634     12.45634        -0.282777      0.280990      0.186948
H     12.45634     19.01126     12.45634         0.256059     -0.251805      0.235855
C     10.35284      5.61067      6.59456         0.094502     -0.501854     -1.249500
C     10.62556     15.36773      6.59456         0.165511      0.767004     -0.844178
C     10.62556      5.61067     14.38384         0.174887     -0.322745      1.815315
C     10.35284     15.36773     14.38384         0.117562      0.396262      1.810111
C      6.59456     10.35284      5.61067        -1.122377     -0.111124     -0.849792
C      6.59456     10.62556     15.36773        -0.680701     -0.105468      0.739551
C     14.38384     10.62556      5.61067         0.879593     -0.115007     -0.999830
C     14.38384     10.35284     15.36773         1.206491      0.165186      1.105821
C      5.61067      6.59456     10.35284        -0.685345     -0.818866     -0.166547
C     15.36773      6.59456     10.62556         1.951208     -0.206914     -0.180343
C      5.61067     14.38384     10.62556        -1.576834     -0.007969     -0.116941
C     15.36773     14.38384     10.35284         0.486404      0.054719      0.027178
C      5.61067     10.35284      6.59456        -0.271026      0.202675     -1.352713
C     15.36773     10.62556      6.59456         0.278393     -0.208045     -0.999588
C      5.61067     10.62556     14.38384        -0.274230      0.391068      1.421849
C     15.36773     10.35284     14.38384         0.066596     -0.433376      1.910183
C     10.35284      6.59456      5.61067        -0.196547     -0.915253     -0.690275
C     10.62556      6.59456     15.36773        -0.101107     -0.799640      1.048704
C     10.62556     14.38384      5.61067        -0.487590      2.041367     -0.783956
C     10.35284     14.38384     15.36773        -0.291368      1.461650      0.473466
C      6.59456      5.61067     10.35284        -0.960922     -0.413450      0.078547
C      6.59456     15.36773     10.62556        -1.333227      0.353917     -0.332357
C     14.38384      5.61067     10.62556         1.298551     -1.173618      0.158635
C     14.38384     15.36773     10.35284         0.412007      0.317097      0.059420
C     10.40319      3.19606      7.29314         0.002935      0.310377     -0.099233
C     10.35913      4.25547      6.23373         0.137707     -0.515221      0.025739
C      0.08601      7.29314      7.29314        -0.053877     -0.306389     -0.430152
C      0.13007      6.23373      6.23373        -0.125920      0.719876      0.040328
C      0.08601      3.19606      3.19606        -0.109331      1.624765      0.173225
C      0.13007      4.25547      4.25547        -0.086525     -0.407749     -1.245080
C     10.40319      7.29314      3.19606         0.016845     -0.426243      0.129718
C     10.35913      6.23373      4.25547         0.260423      0.079446     -0.492189
C      7.29314     10.40319      3.19606        -1.664347      0.005633      0.326871
C      6.23373     10.35913      4.25547         0.653601      0.077329     -0.610898
C      7.29314      0.08601      7.29314        -0.399081     -0.010602     -0.298832
C      6.23373      0.13007      6.23373         0.640448     -0.053811      0.271893
C      3.19606      0.08601      3.19606         0.660965     -0.015970      0.188150
C      4.25547      0.13007      4.25547        -0.373633     -0.065665     -0.499945
C      3.19606     10.40319      7.29314         0.378571      0.018303     -0.318763
C      4.25547     10.35913      6.23373        -0.726944      0.060820      0.372185
C      3.19606      7.29314     10.40319         0.302915     -0.216706     -0.006151
C      4.25547      6.23373     10.35913         0.053315      0.647615      0.093345
C      7.29314      7.29314      0.08601        -0.718666     -0.597418     -0.016870
C      6.23373      6.23373      0.13007         0.823612      1.140713     -0.077850
C      3.19606      3.19606      0.08601         0.809076      0.491122      0.012239
C      4.25547      4.25547      0.13007        -0.324828     -1.719826     -0.122024
C      7.29314      3.19606     10.40319        -0.332380      0.278184     -0.003386
C      6.23373      4.25547     10.35913         0.518502     -0.034293      0.229782
O     10.43466      3.58206      8.50569        -0.047618      0.181157      0.258214
O     10.54374     17.39634      8.50569         0.041437     -0.231695      0.485221
O     10.54374      3.58206     12.47271         0.085287     -0.058570     -0.041864
O     10.43466     17.39634     12.47271        -0.023057     -0.139958     -0.279694
O      8.50569     10.43466      3.58206         0.983387      0.182348      0.388800
O      8.50569     10.54374     17.39634         0.566696      0.083652     -0.227030
O     12.47271     10.54374      3.58206        -0.429512     -0.038298      0.188862
O     12.47271     10.43466     17.39634        -0.523911     -0.070766     -0.199499
O      3.58206      8.50569     10.43466         0.179538      0.438085     -0.030939
O     17.39634      8.50569     10.54374        -0.228557      0.713981      0.042416
O      3.58206     12.47271     10.54374         0.159280     -0.667230      0.024278
O     17.39634     12.47271     10.43466        -0.185276     -0.483467     -0.013079
O      3.58206     10.43466      8.50569         0.221034     -0.059114      0.400414
O     17.39634     10.54374      8.50569        -0.169750      0.036732      0.409942
O      3.58206     10.54374     12.47271         0.143844      0.021059     -0.307512
O     17.39634     10.43466     12.47271         0.067832     -0.050197     -0.088445
O     10.43466      8.50569      3.58206        -0.001234      0.277379      0.179085
O     10.54374      8.50569     17.39634         0.071083      0.439444     -0.182505
O     10.54374     12.47271      3.58206        -0.222534     -0.966035      0.346960
O     10.43466     12.47271     17.39634        -0.084707     -0.448714     -0.244704
O      8.50569      3.58206     10.43466         0.497864      0.195384     -0.013175
O      8.50569     17.39634     10.54374         0.658657     -0.194457      0.022605
O     12.47271      3.58206     10.54374        -0.736454      0.277834      0.036567
O     12.47271     17.39634     10.43466        -0.442658     -0.200108     -0.044435
O     11.90042     11.90042     19.56718        -0.345277     -0.307528      0.258784
O     19.56718     19.56718     19.56718         0.325780      0.310783      0.281678
O     19.56718     11.90042     11.90042         0.278233     -0.278175     -0.141212
O     11.90042     19.56718     11.90042        -0.307088      0.287794     -0.234029
O      9.45224      1.03696      9.45224        -0.057371      0.070922     -0.048356
O      1.03696      9.45224      9.45224         0.035323     -0.072957     -0.073052
O      1.03696      1.03696      1.03696         0.057111      0.138633      0.104661
O      9.45224      9.45224      1.03696        -0.131555     -0.089226      0.104349
Zr     10.48920      2.52580     10.48920         0.145343     -0.164202     -0.161621
Zr     10.48920     18.45260     10.48920        -0.092930      0.179421     -0.042052
Zr     10.48920     10.48920      2.52580         0.327310     -0.309674     -0.197541
Zr     10.48920     10.48920     18.45260         0.003011     -0.084134      0.208726
Zr      2.52580     10.48920     10.48920        -0.064658      0.164241     -0.051126
Zr     18.45260     10.48920     10.48920         0.136477     -0.122748     -0.247556
Ir     12.05849     12.48909     10.46266        -0.011954      0.004608      0.019422
Ir     11.16045      7.41647     10.32112         0.035061      0.004653     -0.014071
Ir      8.80834      7.39277     11.58368         0.021665     -0.023838     -0.011750
Ir      7.48516     11.66470      7.65377        -0.002775     -0.011140      0.003608
Ir     11.59637     12.09447      7.12444         0.002126     -0.000822     -0.003799
Ir     13.74250      8.97671      7.56140         0.006453      0.005380      0.002138
Ir     12.50238     13.95396      8.42056        -0.007406      0.002165     -0.001137
Ir      9.71806     11.26663      5.56964         0.002521      0.003083     -0.007893
Ir      9.08577     13.47215      7.07529        -0.003413      0.001252      0.002754
Ir      9.28907      9.66373      7.53570        -0.003494     -0.001240     -0.011672
Ir     13.25750      7.04094     11.95219         0.007611      0.004014      0.007096
Ir     13.54962      7.02634      9.12092         0.028730      0.012487     -0.004788
Ir     11.01782      7.60826     12.86279         0.016470     -0.004871     -0.016041
Ir     13.61481     11.55747      8.75785         0.013170      0.008102     -0.008138
Ir     11.50512      9.65972      6.23870         0.002519     -0.007750     -0.009500
Ir      7.14501      9.19910      8.94791        -0.011829     -0.018864     -0.022644
Ir     14.05953     11.41945     11.66474        -0.005036      0.006014     -0.003914
Ir     11.65133      9.87140      8.90283         0.001198     -0.019059     -0.010540
Ir      9.42626      9.53258     10.25432         0.021775     -0.010681     -0.008406
Ir     13.85638      9.39229     10.19136         0.006036      0.008669     -0.006707
Ir     13.80445      9.15157     12.91777         0.004621      0.005316     -0.015862
Ir     11.68318      9.76582     11.57577         0.007903     -0.003531     -0.004785
Ir      9.91351     11.76161      8.97890         0.000741     -0.017290     -0.003369
Ir      9.03340      7.44115      8.84967         0.034995     -0.005153     -0.020323
Ir     11.50910      7.59207      7.79385         0.044860     -0.020639     -0.016472
Ir      9.24405      9.50872     13.02243         0.014781     -0.018255     -0.001633
Ir      7.52936     13.92788      8.99008        -0.004619     -0.007135      0.002378
Ir     10.90825     14.12961     11.94635        -0.014026     -0.024150     -0.006823
Ir     10.12816     14.17731      9.52158        -0.000886     -0.004837      0.003774
Ir      9.80188     11.71143     11.72785         0.006660     -0.012058      0.007460
Ir      7.59160     11.60552     10.21024        -0.009141     -0.016941      0.003996
Ir      8.37612     13.77413     11.58524        -0.009121     -0.011972      0.005387
Ir      7.52961     11.60646     12.83006         0.001277     -0.017431      0.000218
Ir      9.76588     11.64079     14.34431         0.003209     -0.008610      0.004602
Ir     13.50216     13.87683     12.19372        -0.006907      0.000420     -0.000461
Ir     11.99730     12.06237     13.08942        -0.003000     -0.010961     -0.024617
Ir     11.56793      9.82197     14.21397         0.001189     -0.006020     -0.017102
Ir      7.13975      9.41118     11.50486        -0.010494     -0.022694      0.008831
