26
# total energy = -167.99064846 eVH      3.22464      7.04746      0.00000        -0.024094     -0.016280      0.000000
H      6.00799      2.18517     -0.00000         0.024094      0.016280      0.000000
H      2.18517      3.22464      0.00000         0.016280     -0.024094      0.000000
H      7.04746      6.00799     -0.00000        -0.016280      0.024094      0.000000
H      6.00799      7.04746     -0.00000         0.024094     -0.016280      0.000000
H      3.22464      2.18517      0.00000        -0.024094      0.016280      0.000000
H      7.04746      3.22464     -0.00000        -0.016280     -0.024094     -0.000000
H      2.18517      6.00799      0.00000         0.016280      0.024094      0.000000
C      8.51209      1.74068     -0.00000        -0.005826      0.022597     -0.000000
C      0.72054      7.49195      0.00000         0.005826     -0.022597     -0.000000
C      7.49195      8.51209      0.00000        -0.022597     -0.005826     -0.000000
C      1.74068      0.72054     -0.00000         0.022597      0.005826     -0.000000
C      0.72054      1.74068      0.00000         0.005826      0.022597     -0.000000
C      8.51209      7.49195     -0.00000        -0.005826     -0.022597      0.000000
C      1.74068      8.51209     -0.00000         0.022597     -0.005826     -0.000000
C      7.49195      0.72054      0.00000        -0.022597      0.005826      0.000000
N      8.03352      3.03575     -0.00000         0.014481     -0.008317      0.000000
N      1.19911      6.19688      0.00000        -0.014481      0.008317      0.000000
N      6.19688      8.03352     -0.00000         0.008317      0.014481      0.000000
N      3.03575      1.19911      0.00000        -0.008317     -0.014481      0.000000
N      1.19911      3.03575      0.00000        -0.014481     -0.008317     -0.000000
N      8.03352      6.19688     -0.00000         0.014481      0.008317     -0.000000
N      3.03575      8.03352     -0.00000        -0.008317      0.014481      0.000000
N      6.19688      1.19911     -0.00000         0.008317     -0.014481      0.000000
Au     -0.00000      4.61632     -0.00000         0.000000     -0.000000      0.000000
Au      4.61632      0.00000     -0.00000         0.000000     -0.000000      0.000000
