152
# total energy = -1060.74956808 eVH     10.35389      5.87395      7.64558        -0.428214      0.140402      1.154684
H     10.62451     15.10445      7.64558         0.089087     -0.106524      0.807522
H     10.62451      5.87395     13.33282        -0.277020      0.059282     -0.632790
H     10.35389     15.10445     13.33282         0.040556     -0.293759     -0.522323
H      7.64558     10.35389      5.87395         0.731123     -0.071373      0.207988
H      7.64558     10.62451     15.10445         0.199904      0.021213     -0.060073
H     13.33282     10.62451      5.87395        -0.633901     -0.087907      0.164650
H     13.33282     10.35389     15.10445        -0.306050     -0.063458     -0.081747
H      5.87395      7.64558     10.35389         0.120943      0.383849     -0.018347
H     15.10445      7.64558     10.62451        -0.114121      0.841656      0.388926
H      5.87395     13.33282     10.62451         0.105981     -0.590008      0.006988
H     15.10445     13.33282     10.35389        -0.247711     -0.456165      0.085095
H      5.87395     10.35389      7.64558         0.264195      0.103923      0.345360
H     15.10445     10.62451      7.64558        -0.176390     -0.078299      0.340222
H      5.87395     10.62451     13.33282         0.015952      0.251436     -0.755442
H     15.10445     10.35389     13.33282         0.045156     -0.255186     -0.664467
H     10.35389      7.64558      5.87395        -0.084411      0.456175      0.280522
H     10.62451      7.64558     15.10445         0.324421      0.675528     -0.115577
H     10.62451     13.33282      5.87395         0.273240     -0.663011      0.132253
H     10.35389     13.33282     15.10445         0.137291     -0.511693     -0.116866
H      7.64558      5.87395     10.35389         0.440310      0.148695      0.010751
H      7.64558     15.10445     10.62451         0.402519     -0.152552      0.253418
H     13.33282      5.87395     10.62451        -0.310381      0.103364      0.029750
H     13.33282     15.10445     10.35389        -0.564674     -0.242311      0.210854
H     12.45634     12.45634     19.01126         0.246332      0.266981     -0.235697
H     19.01126     19.01126     19.01126        -0.253534     -0.265651     -0.231334
H     19.01126     12.45634     12.45634        -0.232464      0.262400      0.249520
H     12.45634     19.01126     12.45634         0.296186     -0.213261      0.239086
C     10.35284      5.61067      6.59456         0.455246     -0.397681     -1.190630
C     10.62556     15.36773      6.59456        -0.184708      0.839166     -0.728121
C     10.62556      5.61067     14.38384         0.330021     -0.256611      0.624081
C     10.35284     15.36773     14.38384        -0.152231      0.311433      0.629856
C      6.59456     10.35284      5.61067        -0.751875     -0.101141     -0.187737
C      6.59456     10.62556     15.36773        -0.569258      0.073861      0.362602
C     14.38384     10.62556      5.61067         1.101693      0.032021     -0.508298
C     14.38384     10.35284     15.36773         0.285080     -0.076681      0.318387
C      5.61067      6.59456     10.35284        -0.347823     -0.546265      0.008681
C     15.36773      6.59456     10.62556         0.231787     -0.892410     -0.314630
C      5.61067     14.38384     10.62556        -0.208713      0.654300     -0.271197
C     15.36773     14.38384     10.35284         0.375495      0.888018     -0.103323
C      5.61067     10.35284      6.59456        -0.238124     -0.134195     -0.399234
C     15.36773     10.62556      6.59456         0.198190      0.059997     -0.312427
C      5.61067     10.62556     14.38384        -0.414034     -0.090486      1.324460
C     15.36773     10.35284     14.38384         0.253215     -0.008261      0.980751
C     10.35284      6.59456      5.61067        -0.038026     -0.359022     -0.454026
C     10.62556      6.59456     15.36773        -0.017321     -0.826625      0.333373
C     10.62556     14.38384      5.61067        -0.340221      0.015637     -0.773848
C     10.35284     14.38384     15.36773        -0.244966      0.736037      0.308980
C      6.59456      5.61067     10.35284        -0.497071     -0.318960      0.101538
C      6.59456     15.36773     10.62556        -0.346001      0.502377      0.050529
C     14.38384      5.61067     10.62556         0.266456     -0.411420      0.103316
C     14.38384     15.36773     10.35284         0.928743      0.306319     -0.057801
C     10.40319      3.19606      7.29314         0.008493      0.695563     -0.367112
C     10.35913      4.25547      6.23373         0.008496     -0.479516      0.327592
C      0.08601      7.29314      7.29314        -0.012961     -0.695003     -0.584048
C      0.13007      6.23373      6.23373        -0.101213      0.851560      0.126328
C      0.08601      3.19606      3.19606        -0.028836      0.337629      0.344195
C      0.13007      4.25547      4.25547         0.064515     -0.175902     -0.652804
C     10.40319      7.29314      3.19606        -0.031114     -1.169004      0.978507
C     10.35913      6.23373      4.25547         0.005403      0.367364     -0.203717
C      7.29314     10.40319      3.19606        -0.847344     -0.045972      0.350637
C      6.23373     10.35913      4.25547         0.244714      0.065065     -0.454750
C      7.29314      0.08601      7.29314        -0.894002      0.011961     -0.405391
C      6.23373      0.13007      6.23373         0.122898      0.021504      0.087531
C      3.19606      0.08601      3.19606         0.387110     -0.004465      0.314459
C      4.25547      0.13007      4.25547        -0.238154     -0.054943     -0.179336
C      3.19606     10.40319      7.29314         0.482700     -0.042763     -1.123015
C      4.25547     10.35913      6.23373        -0.217791     -0.030778      0.132111
C      3.19606      7.29314     10.40319         0.780432     -0.466480      0.017785
C      4.25547      6.23373     10.35913        -0.107073      0.166241     -0.004249
C      7.29314      7.29314      0.08601        -0.392473     -0.291286     -0.015648
C      6.23373      6.23373      0.13007         0.353033      0.103635     -0.166016
C      3.19606      3.19606      0.08601         0.328963      0.659438     -0.011365
C      4.25547      4.25547      0.13007        -0.385622     -0.279577      0.019500
C      7.29314      3.19606     10.40319        -0.221792      0.631843      0.018329
C      6.23373      4.25547     10.35913         0.049865     -0.221818      0.001496
O     10.43466      3.58206      8.50569        -0.026856      0.085657      0.319185
O     10.54374     17.39634      8.50569         0.075651     -0.025279      0.439367
O     10.54374      3.58206     12.47271         0.048960      0.197768     -0.544672
O     10.43466     17.39634     12.47271         0.044134      0.011043     -0.518435
O      8.50569     10.43466      3.58206         0.640742     -0.075259      0.086698
O      8.50569     10.54374     17.39634         0.864808      0.064789     -0.135352
O     12.47271     10.54374      3.58206        -0.352114      0.062907      0.052069
O     12.47271     10.43466     17.39634        -0.330780     -0.013247      0.083004
O      3.58206      8.50569     10.43466        -0.003637      0.423459     -0.082054
O     17.39634      8.50569     10.54374        -0.131914      0.423834      0.027545
O      3.58206     12.47271     10.54374         0.138220     -0.654741     -0.005256
O     17.39634     12.47271     10.43466        -0.267434     -0.721298     -0.002573
O      3.58206     10.43466      8.50569         0.141820     -0.045184      0.862082
O     17.39634     10.54374      8.50569         0.014387      0.040873      0.314439
O      3.58206     10.54374     12.47271         0.056231      0.012946     -0.410594
O     17.39634     10.43466     12.47271        -0.046284      0.014767     -0.369489
O     10.43466      8.50569      3.58206        -0.060571      0.529190     -0.172126
O     10.54374      8.50569     17.39634         0.033624      0.733565     -0.120147
O     10.54374     12.47271      3.58206         0.061646     -0.364138      0.088350
O     10.43466     12.47271     17.39634        -0.061837     -0.736993     -0.247691
O      8.50569      3.58206     10.43466         0.323767      0.035953     -0.063981
O      8.50569     17.39634     10.54374         0.535198     -0.139405      0.029832
O     12.47271      3.58206     10.54374        -0.441668      0.113314      0.015508
O     12.47271     17.39634     10.43466        -0.621665     -0.090628      0.049685
O     11.90042     11.90042     19.56718        -0.252285     -0.282299      0.217758
O     19.56718     19.56718     19.56718         0.295184      0.298584      0.257868
O     19.56718     11.90042     11.90042         0.244768     -0.293782     -0.303340
O     11.90042     19.56718     11.90042        -0.292299      0.167081     -0.247684
O      9.45224      1.03696      9.45224        -0.116512      0.122918     -0.085093
O      1.03696      9.45224      9.45224         0.142441     -0.149881     -0.121903
O      1.03696      1.03696      1.03696         0.155441      0.176847     -0.028278
O      9.45224      9.45224      1.03696        -0.174007     -0.207799      0.028257
Zr     10.48920      2.52580     10.48920         0.032144     -0.234225      0.230044
Zr     10.48920     18.45260     10.48920        -0.241445      0.286954     -0.299438
Zr     10.48920     10.48920      2.52580         0.150937      0.518979     -0.162166
Zr     10.48920     10.48920     18.45260         0.011335     -0.126637      0.431043
Zr      2.52580     10.48920     10.48920        -0.481345      0.104196      0.386381
Zr     18.45260     10.48920     10.48920         0.249094     -0.171499      0.065815
Pd      9.18356     14.47463      9.09528        -0.105329     -0.139001      0.260791
Pd      8.30295     13.39678     13.58183         0.067167     -0.176310     -0.050819
Pd     11.89499     14.50985      8.87622        -0.025834     -0.286006      0.072981
Pd     12.26473     12.76929     10.82135         0.102453      0.185065      0.286755
Pd     11.97899      7.12930     12.37120        -0.028597     -0.035297     -0.162164
Pd     10.98589     15.22220     11.28194        -0.021993      0.031526      0.020250
Pd      9.57572     13.00977     11.26519        -0.007871     -0.003554     -0.050540
Pd     13.61688     12.54708      8.33369         0.432178      0.126289     -0.033099
Pd     11.75160     11.73388      6.65512        -0.389875     -0.302409      0.241333
Pd      7.62303      8.26460      7.43802        -0.064159      0.147273     -0.129040
Pd      8.78647     11.87713      6.87440         0.102954      0.206897     -0.063659
Pd      9.84597      9.76808      8.10321         0.195585     -0.356390     -0.026672
Pd      8.49615     14.52269      6.48145        -0.034314      0.008051      0.065212
Pd     12.23405      9.03685      7.07200        -0.009790     -0.082861     -0.118465
Pd     10.24564      9.88349      5.44535        -0.257324     -0.010771      0.181109
Pd      6.82840      9.21500     12.25692         0.274780      0.009989     -0.036658
Pd     12.23526      6.45995      7.88760        -0.002287      0.075740      0.026657
Pd      5.68655     10.53669      9.91589         0.039901     -0.061897      0.071508
Pd      7.59148      6.78007     13.09515         0.105097      0.080326     -0.101733
Ir     11.36509      9.61967     13.00385        -0.050677      0.077029     -0.123214
Ir     13.27249      9.18278     11.37007        -0.399153     -0.016209     -0.138256
Ir      9.15417      8.61845     13.95619         0.071959     -0.064872     -0.083752
Ir     10.28448     10.55979     15.14439         0.051070      0.227931     -0.080842
Ir      7.06339     11.84547     11.73092         0.100642     -0.006525     -0.152284
Ir     14.56071     11.13410     10.44589         0.266594     -0.005585      0.061743
Ir     12.43611     10.43295      9.30916        -0.358740      0.401910     -0.176939
Ir      8.89147     10.89406     12.93824         0.000417     -0.109006      0.053576
Ir     10.05342     10.18543     10.75178         0.007951      0.096387     -0.042401
Ir     13.32670     11.35084     12.62530        -0.105243     -0.127411      0.332345
Ir     11.07966     12.13278     13.26118         0.120358      0.123987      0.069709
Ir      8.08810     11.53041      9.43540         0.217677     -0.014761      0.142570
Ir     11.40618      8.05559      9.83228         0.184026      0.189010     -0.083262
Ir      7.02096     13.31504      8.26400         0.003734     -0.032853     -0.074779
Ir      9.28088      7.13033      9.09721        -0.110401     -0.028724     -0.123184
Ir      7.88428      9.02734      9.91080        -0.089253      0.196227     -0.021092
Ir     10.56349     12.19686      8.90288        -0.246050     -0.085550     -0.046194
Ir      9.43632      7.82601     11.55576        -0.027652      0.002030      0.184303
Ir     13.81010      8.24315      9.02594         0.093992      0.049539     -0.085679
