9
# total energy = -63.87774107 eVH      2.54436      2.84858      0.00000         0.006985      0.018170      0.000000
H      0.02614      6.60631      0.00000        -0.006985     -0.018170      0.000000
C      1.23055      8.06855      0.00000         0.012653     -0.032587     -0.000000
C      1.33996      1.38634      0.00000        -0.012653      0.032587     -0.000000
C     -0.01741      8.82724     -0.00000         0.000538      0.016828     -0.000000
C      0.01741      0.69784     -0.00000        -0.000538     -0.016828      0.000000
N      1.55893      2.70678     -0.00000        -0.005277     -0.010401      0.000000
N      1.01157      6.74811     -0.00000         0.005277      0.010401     -0.000000
Ir      1.28525      4.72744      0.00000         0.000000     -0.000000      0.000000
