152
# total energy = -1110.35538919 eVH     10.35389      5.87395      7.64558        -0.338808     -0.165570      1.020651
H     10.62451     15.10445      7.64558         0.386424      0.091924      0.944773
H     10.62451      5.87395     13.33282        -0.301183     -0.723495     -1.422184
H     10.35389     15.10445     13.33282        -0.641996      0.364329     -0.320241
H      7.64558     10.35389      5.87395         0.545730     -0.544239     -0.080490
H      7.64558     10.62451     15.10445         0.350950     -0.242355      0.037986
H     13.33282     10.62451      5.87395        -0.516334      0.606273     -0.011223
H     13.33282     10.35389     15.10445        -0.534036      0.419722      0.163949
H      5.87395      7.64558     10.35389         0.138487      0.484453      0.034707
H     15.10445      7.64558     10.62451         0.431090      0.826115      0.245768
H      5.87395     13.33282     10.62451        -0.231732     -0.434784      0.364792
H     15.10445     13.33282     10.35389         0.031244     -0.312275     -0.392292
H      5.87395     10.35389      7.64558        -0.070844     -0.347542      1.446951
H     15.10445     10.62451      7.64558         0.196894      0.394592      1.244548
H      5.87395     10.62451     13.33282        -0.135997     -0.331898     -1.112214
H     15.10445     10.35389     13.33282         0.529697      0.874717     -1.515597
H     10.35389      7.64558      5.87395        -0.527093      0.493679     -0.201655
H     10.62451      7.64558     15.10445        -0.134235      0.561132      0.203603
H     10.62451     13.33282      5.87395         0.915377     -1.415374     -0.334513
H     10.35389     13.33282     15.10445         0.293664     -0.543470     -0.068776
H      7.64558      5.87395     10.35389         0.725680      0.173367     -0.136774
H      7.64558     15.10445     10.62451         1.966461      0.828723      0.179838
H     13.33282      5.87395     10.62451        -2.697233     -1.013442     -0.412555
H     13.33282     15.10445     10.35389        -0.868675     -0.040338     -0.254812
H     12.45634     12.45634     19.01126         0.271733      0.257846     -0.227565
H     19.01126     19.01126     19.01126        -0.266768     -0.254468     -0.237947
H     19.01126     12.45634     12.45634        -0.282714      0.281247      0.187003
H     12.45634     19.01126     12.45634         0.256098     -0.251979      0.235833
C     10.35284      5.61067      6.59456         0.102369     -0.496594     -1.260520
C     10.62556     15.36773      6.59456         0.164113      0.771810     -0.862564
C     10.62556      5.61067     14.38384         0.168694     -0.323715      1.825163
C     10.35284     15.36773     14.38384         0.123948      0.403880      1.811337
C      6.59456     10.35284      5.61067        -1.115368     -0.111230     -0.842026
C      6.59456     10.62556     15.36773        -0.672226     -0.108551      0.723822
C     14.38384     10.62556      5.61067         0.891348     -0.116972     -0.997761
C     14.38384     10.35284     15.36773         1.209119      0.164405      1.106136
C      5.61067      6.59456     10.35284        -0.694803     -0.786350     -0.158166
C     15.36773      6.59456     10.62556         1.940189     -0.182657     -0.175818
C      5.61067     14.38384     10.62556        -1.573182     -0.004920     -0.109229
C     15.36773     14.38384     10.35284         0.486307      0.044153      0.035258
C      5.61067     10.35284      6.59456        -0.268983      0.209271     -1.369645
C     15.36773     10.62556      6.59456         0.271600     -0.188136     -0.998394
C      5.61067     10.62556     14.38384        -0.284686      0.370829      1.406261
C     15.36773     10.35284     14.38384         0.077446     -0.427655      1.901868
C     10.35284      6.59456      5.61067        -0.206141     -0.936401     -0.696808
C     10.62556      6.59456     15.36773        -0.094526     -0.824768      1.041274
C     10.62556     14.38384      5.61067        -0.481626      2.060344     -0.785529
C     10.35284     14.38384     15.36773        -0.299348      1.488066      0.461540
C      6.59456      5.61067     10.35284        -0.957152     -0.412217      0.074083
C      6.59456     15.36773     10.62556        -1.354362      0.334272     -0.337355
C     14.38384      5.61067     10.62556         1.312090     -1.107322      0.138122
C     14.38384     15.36773     10.35284         0.395767      0.317379      0.053327
C     10.40319      3.19606      7.29314         0.003397      0.312456     -0.096321
C     10.35913      4.25547      6.23373         0.135937     -0.498992      0.034289
C      0.08601      7.29314      7.29314        -0.054558     -0.311528     -0.433518
C      0.13007      6.23373      6.23373        -0.128085      0.729606      0.048900
C      0.08601      3.19606      3.19606        -0.111162      1.622466      0.174630
C      0.13007      4.25547      4.25547        -0.088810     -0.411685     -1.255033
C     10.40319      7.29314      3.19606         0.016847     -0.420527      0.133031
C     10.35913      6.23373      4.25547         0.259450      0.076409     -0.479485
C      7.29314     10.40319      3.19606        -1.665712      0.004701      0.328052
C      6.23373     10.35913      4.25547         0.653908      0.078802     -0.613086
C      7.29314      0.08601      7.29314        -0.396140     -0.008739     -0.292525
C      6.23373      0.13007      6.23373         0.612465     -0.052517      0.276973
C      3.19606      0.08601      3.19606         0.662194     -0.014998      0.190864
C      4.25547      0.13007      4.25547        -0.374455     -0.058610     -0.479411
C      3.19606     10.40319      7.29314         0.385368      0.018165     -0.322423
C      4.25547     10.35913      6.23373        -0.731792      0.056972      0.379125
C      3.19606      7.29314     10.40319         0.309150     -0.221064     -0.005769
C      4.25547      6.23373     10.35913         0.057331      0.648246      0.094706
C      7.29314      7.29314      0.08601        -0.720728     -0.591916     -0.014246
C      6.23373      6.23373      0.13007         0.785457      1.155328     -0.078391
C      3.19606      3.19606      0.08601         0.804159      0.483865      0.014866
C      4.25547      4.25547      0.13007        -0.332458     -1.697487     -0.114667
C      7.29314      3.19606     10.40319        -0.333890      0.279852     -0.003216
C      6.23373      4.25547     10.35913         0.524219     -0.040393      0.228452
O     10.43466      3.58206      8.50569        -0.046996      0.180002      0.257830
O     10.54374     17.39634      8.50569         0.041011     -0.230980      0.485581
O     10.54374      3.58206     12.47271         0.086318     -0.056011     -0.044497
O     10.43466     17.39634     12.47271        -0.022796     -0.139917     -0.283024
O      8.50569     10.43466      3.58206         0.986251      0.181122      0.391250
O      8.50569     10.54374     17.39634         0.563539      0.083328     -0.226327
O     12.47271     10.54374      3.58206        -0.430478     -0.037551      0.189357
O     12.47271     10.43466     17.39634        -0.529143     -0.071301     -0.201744
O      3.58206      8.50569     10.43466         0.177484      0.442931     -0.031477
O     17.39634      8.50569     10.54374        -0.227097      0.715329      0.041252
O      3.58206     12.47271     10.54374         0.158319     -0.661899      0.023626
O     17.39634     12.47271     10.43466        -0.185270     -0.485852     -0.013666
O      3.58206     10.43466      8.50569         0.219754     -0.058691      0.400185
O     17.39634     10.54374      8.50569        -0.168567      0.036743      0.408841
O      3.58206     10.54374     12.47271         0.142445      0.020768     -0.310063
O     17.39634     10.43466     12.47271         0.066549     -0.050546     -0.089794
O     10.43466      8.50569      3.58206        -0.002958      0.275705      0.176458
O     10.54374      8.50569     17.39634         0.071314      0.441347     -0.184269
O     10.54374     12.47271      3.58206        -0.222662     -0.966295      0.347473
O     10.43466     12.47271     17.39634        -0.085326     -0.448659     -0.244311
O      8.50569      3.58206     10.43466         0.500027      0.194931     -0.013796
O      8.50569     17.39634     10.54374         0.656068     -0.191777      0.023265
O     12.47271      3.58206     10.54374        -0.733312      0.277464      0.036624
O     12.47271     17.39634     10.43466        -0.446124     -0.197971     -0.044538
O     11.90042     11.90042     19.56718        -0.344631     -0.307488      0.258329
O     19.56718     19.56718     19.56718         0.326225      0.310419      0.280899
O     19.56718     11.90042     11.90042         0.278832     -0.278973     -0.141392
O     11.90042     19.56718     11.90042        -0.307594      0.288832     -0.234187
O      9.45224      1.03696      9.45224        -0.056352      0.070289     -0.049329
O      1.03696      9.45224      9.45224         0.035057     -0.072283     -0.074011
O      1.03696      1.03696      1.03696         0.056794      0.137446      0.105723
O      9.45224      9.45224      1.03696        -0.129968     -0.088289      0.105265
Zr     10.48920      2.52580     10.48920         0.139981     -0.161956     -0.160471
Zr     10.48920     18.45260     10.48920        -0.090326      0.178824     -0.039066
Zr     10.48920     10.48920      2.52580         0.326496     -0.311202     -0.197750
Zr     10.48920     10.48920     18.45260         0.000838     -0.082280      0.211902
Zr      2.52580     10.48920     10.48920        -0.063506      0.160072     -0.049779
Zr     18.45260     10.48920     10.48920         0.133958     -0.120090     -0.246326
Ir     12.06269     12.49278     10.46436         0.006077     -0.013124     -0.003173
Ir     11.13333      7.41727     10.33856         0.059234      0.000354      0.001652
Ir      8.78364      7.40973     11.59951         0.027248     -0.043233     -0.014760
Ir      7.48361     11.67128      7.64846         0.007668     -0.010659      0.007685
Ir     11.59700     12.09790      7.12557         0.002966      0.013518      0.014044
Ir     13.72685      8.96663      7.57162        -0.001836      0.012306      0.011537
Ir     12.51251     13.95373      8.42148        -0.016611     -0.018361      0.003919
Ir      9.71485     11.26766      5.57248        -0.006649      0.009800      0.000650
Ir      9.08878     13.47302      7.07261        -0.008669      0.008030      0.012914
Ir      9.29549      9.66345      7.54385        -0.008185     -0.000794     -0.017305
Ir     13.24169      7.04612     11.94581        -0.009731      0.011605      0.030679
Ir     13.51486      7.01923      9.12463         0.046103      0.014972     -0.005994
Ir     11.00043      7.61309     12.87655         0.044984     -0.004642     -0.018574
Ir     13.61863     11.55425      8.75995        -0.004324      0.004058     -0.006823
Ir     11.50707      9.66828      6.24222        -0.008948     -0.007904     -0.007249
Ir      7.13653      9.22122      8.95325        -0.007965     -0.025642     -0.014297
Ir     14.05491     11.41202     11.66995        -0.000917      0.010260     -0.008898
Ir     11.64692      9.88164      8.91506         0.020659     -0.013927     -0.020562
Ir      9.41763      9.54467     10.26300         0.029171     -0.005094     -0.014312
Ir     13.84976      9.38416     10.19631        -0.012224      0.018133     -0.014205
Ir     13.79744      9.14792     12.92822        -0.007210     -0.003362     -0.021355
Ir     11.67715      9.76611     11.58469         0.004378     -0.001654     -0.011053
Ir      9.91423     11.77192      8.98344        -0.000388     -0.011527     -0.012979
Ir      9.00252      7.44862      8.86961         0.044368     -0.019266     -0.028249
Ir     11.46521      7.61043      7.81146         0.062967     -0.023849     -0.028340
Ir      9.23563      9.52284     13.02704         0.018659     -0.021857     -0.003033
Ir      7.53618     13.93977      8.98504        -0.003815     -0.009101      0.007105
Ir     10.92095     14.14183     11.94036        -0.015657     -0.006932      0.021828
Ir     10.13225     14.18827      9.51941         0.000748     -0.006177     -0.004809
Ir      9.80559     11.72316     11.72918         0.005386     -0.033093     -0.003806
Ir      7.59217     11.62296     10.20756        -0.017791     -0.022023      0.002092
Ir      8.38767     13.78765     11.58372        -0.026560      0.000713      0.004971
Ir      7.53017     11.63218     12.83038        -0.004401     -0.027684      0.010559
Ir      9.76137     11.65321     14.34541         0.006530      0.000627      0.009512
Ir     13.51203     13.87369     12.19614        -0.005383      0.001342     -0.004809
Ir     11.99567     12.07032     13.09200         0.012376     -0.027007     -0.012832
Ir     11.56293      9.83232     14.21896        -0.003951     -0.003134     -0.012524
Ir      7.12907      9.43829     11.51081        -0.007020     -0.033443      0.005013
