152
# total energy = -1023.24994380 eVH     10.35389      5.87395      7.64558         0.493605      0.085781      0.719552
H     10.62451     15.10445      7.64558        -0.078747     -0.080473      0.786041
H     10.62451      5.87395     13.33282         0.144965      0.133460     -0.630469
H     10.35389     15.10445     13.33282        -0.188850     -0.120077     -0.552666
H      7.64558     10.35389      5.87395         0.308477     -0.021022      0.187844
H      7.64558     10.62451     15.10445         0.683020     -0.231286     -0.122007
H     13.33282     10.62451      5.87395        -0.767800     -0.138825      0.202196
H     13.33282     10.35389     15.10445        -0.452412     -0.107346     -0.051674
H      5.87395      7.64558     10.35389         0.205955      1.049682     -0.243450
H     15.10445      7.64558     10.62451        -0.174765      0.459799     -0.112691
H      5.87395     13.33282     10.62451         0.163400     -0.422488     -0.060305
H     15.10445     13.33282     10.35389        -0.125895     -0.919871      0.020582
H      5.87395     10.35389      7.64558         0.132186      0.097745      0.454753
H     15.10445     10.62451      7.64558         0.097911     -0.017642      1.079515
H      5.87395     10.62451     13.33282         0.181813     -0.028357     -0.379112
H     15.10445     10.35389     13.33282        -0.131245     -0.062727     -0.553923
H     10.35389      7.64558      5.87395         0.103074      0.862423      0.190835
H     10.62451      7.64558     15.10445        -0.005138      0.484260     -0.166604
H     10.62451     13.33282      5.87395        -0.016308     -0.572335      0.217384
H     10.35389     13.33282     15.10445        -0.341954     -0.885714     -0.127930
H      7.64558      5.87395     10.35389         0.450679      0.096770     -0.031297
H      7.64558     15.10445     10.62451         0.819174     -0.275317      0.030106
H     13.33282      5.87395     10.62451        -0.448237      0.185811     -0.064669
H     13.33282     15.10445     10.35389        -0.652983     -0.095989      0.168953
H     12.45634     12.45634     19.01126         0.251893      0.265814     -0.229404
H     19.01126     19.01126     19.01126        -0.252563     -0.231821     -0.260539
H     19.01126     12.45634     12.45634        -0.234955      0.272799      0.239620
H     12.45634     19.01126     12.45634         0.225277     -0.262793      0.249463
C     10.35284      5.61067      6.59456        -0.203932     -0.365171     -0.025419
C     10.62556     15.36773      6.59456         0.061581      0.368909     -1.169903
C     10.62556      5.61067     14.38384        -0.059121     -0.240912      0.800353
C     10.35284     15.36773     14.38384         0.042864      0.858290      0.392320
C      6.59456     10.35284      5.61067        -0.366082     -0.037558     -0.181125
C      6.59456     10.62556     15.36773        -0.876325      0.227722      0.379991
C     14.38384     10.62556      5.61067         0.466888      0.296825     -0.515518
C     14.38384     10.35284     15.36773         0.777890     -0.113066      0.434558
C      5.61067      6.59456     10.35284        -0.318619     -0.630952      0.435949
C     15.36773      6.59456     10.62556         0.160262     -0.504196      0.076822
C      5.61067     14.38384     10.62556        -0.145853      0.392348     -0.022657
C     15.36773     14.38384     10.35284         0.374080     -0.053807     -0.100847
C      5.61067     10.35284      6.59456        -0.258430     -0.022589     -0.778294
C     15.36773     10.62556      6.59456         0.610591     -0.294739     -1.349392
C      5.61067     10.62556     14.38384        -0.350847     -0.004978      0.385851
C     15.36773     10.35284     14.38384         0.492349     -0.161848      1.149351
C     10.35284      6.59456      5.61067        -0.176040     -0.484805     -0.468245
C     10.62556      6.59456     15.36773         0.050401     -0.580943      0.266916
C     10.62556     14.38384      5.61067         0.096143      0.985049     -0.484529
C     10.35284     14.38384     15.36773         0.256593      0.560784      0.538443
C      6.59456      5.61067     10.35284        -0.157443     -0.825372      0.077482
C      6.59456     15.36773     10.62556        -1.482712      0.407719      0.117298
C     14.38384      5.61067     10.62556         0.644058     -0.268483     -0.014020
C     14.38384     15.36773     10.35284        -0.426591      0.682453     -0.326813
C     10.40319      3.19606      7.29314         0.009447      0.840014     -0.300075
C     10.35913      4.25547      6.23373        -0.039231     -0.471794      0.506380
C      0.08601      7.29314      7.29314        -0.007685     -0.270858     -0.507886
C      0.13007      6.23373      6.23373         0.022720      0.130843      0.191321
C      0.08601      3.19606      3.19606        -0.012412      0.604059      0.194293
C      0.13007      4.25547      4.25547        -0.089588     -0.171495     -0.193388
C     10.40319      7.29314      3.19606        -0.006415     -0.658840      0.550402
C     10.35913      6.23373      4.25547        -0.034706      0.284474     -0.604001
C      7.29314     10.40319      3.19606        -0.298496      0.029059      0.942284
C      6.23373     10.35913      4.25547         0.167760      0.034346     -0.127062
C      7.29314      0.08601      7.29314        -0.328730     -0.036073     -0.300133
C      6.23373      0.13007      6.23373         0.344649     -0.052850      0.339883
C      3.19606      0.08601      3.19606         0.532849     -0.030104      0.660253
C      4.25547      0.13007      4.25547        -0.094205     -0.032807     -0.366972
C      3.19606     10.40319      7.29314         0.715067      0.000954     -0.431709
C      4.25547     10.35913      6.23373        -0.158931      0.031808      0.088706
C      3.19606      7.29314     10.40319         0.662707     -1.300859     -0.015279
C      4.25547      6.23373     10.35913        -0.645853      0.895694      0.072788
C      7.29314      7.29314      0.08601        -0.672424     -0.191205     -0.015106
C      6.23373      6.23373      0.13007         0.209110      0.186966      0.017497
C      3.19606      3.19606      0.08601         0.269056      0.305669     -0.020222
C      4.25547      4.25547      0.13007        -0.066558     -0.043211     -0.003148
C      7.29314      3.19606     10.40319        -0.367410      0.971636      0.014805
C      6.23373      4.25547     10.35913         1.072032     -0.014297      0.008400
O     10.43466      3.58206      8.50569        -0.044049      0.046829      0.380620
O     10.54374     17.39634      8.50569        -0.040731     -0.170403      0.582527
O     10.54374      3.58206     12.47271         0.049192      0.072011     -0.322851
O     10.43466     17.39634     12.47271        -0.013170     -0.134136     -0.619825
O      8.50569     10.43466      3.58206         0.323519     -0.033360     -0.034115
O      8.50569     10.54374     17.39634         0.484003      0.043896     -0.147186
O     12.47271     10.54374      3.58206        -0.492338      0.004917      0.097604
O     12.47271     10.43466     17.39634        -0.787154     -0.001059     -0.182714
O      3.58206      8.50569     10.43466         0.117369      1.060403      0.012576
O     17.39634      8.50569     10.54374        -0.029740      0.317754      0.071803
O      3.58206     12.47271     10.54374         0.075311     -0.479808      0.047413
O     17.39634     12.47271     10.43466        -0.171959     -0.872305      0.052417
O      3.58206     10.43466      8.50569        -0.061436     -0.067555      0.345140
O     17.39634     10.54374      8.50569        -0.126614      0.041343      0.456330
O      3.58206     10.54374     12.47271         0.088311     -0.016074     -0.621092
O     17.39634     10.43466     12.47271        -0.192605      0.057993     -0.790085
O     10.43466      8.50569      3.58206         0.032492      0.653438      0.164812
O     10.54374      8.50569     17.39634         0.064218      0.448745     -0.081578
O     10.54374     12.47271      3.58206        -0.008365     -0.701494      0.222454
O     10.43466     12.47271     17.39634         0.032572     -0.861801     -0.241242
O      8.50569      3.58206     10.43466         0.455293      0.031427     -0.038959
O      8.50569     17.39634     10.54374         0.691775     -0.259187     -0.059613
O     12.47271      3.58206     10.54374        -0.459049      0.147282      0.041411
O     12.47271     17.39634     10.43466        -0.543991     -0.014117     -0.006285
O     11.90042     11.90042     19.56718        -0.290906     -0.315590      0.252875
O     19.56718     19.56718     19.56718         0.285283      0.263365      0.308390
O     19.56718     11.90042     11.90042         0.260196     -0.324076     -0.244142
O     11.90042     19.56718     11.90042        -0.272333      0.277304     -0.268692
O      9.45224      1.03696      9.45224        -0.079872      0.042188     -0.073347
O      1.03696      9.45224      9.45224         0.019867     -0.167516     -0.098474
O      1.03696      1.03696      1.03696         0.006726      0.066709      0.173143
O      9.45224      9.45224      1.03696        -0.060852     -0.102658      0.107171
Zr     10.48920      2.52580     10.48920        -0.003095     -0.094701     -0.042541
Zr     10.48920     18.45260     10.48920         0.126117      0.356220      0.009759
Zr     10.48920     10.48920      2.52580         0.015186     -0.016807     -0.369026
Zr     10.48920     10.48920     18.45260        -0.167552     -0.051360      0.386375
Zr      2.52580     10.48920     10.48920        -0.356120      0.247023     -0.084943
Zr     18.45260     10.48920     10.48920         0.270348     -0.003649     -0.286475
Pd      8.94151     10.09797     13.32148        -0.026688     -0.011600      0.026947
Pd     10.65840      9.67660     10.79954         0.002443      0.013923     -0.057450
Pd     13.69871      8.39731     12.58752         0.006416      0.120244     -0.055020
Pd     10.97859     10.88264     14.98206        -0.033132     -0.021232      0.030312
Pd     12.90311     11.04603     12.98661         0.149722     -0.084770      0.047507
Pd     15.09853     11.05211     11.31711        -0.007126     -0.018318      0.027314
Pd      6.58402      7.74154     12.33943        -0.011594      0.003909      0.035382
Pd      9.30329      7.26682      9.84863         0.049616      0.062935     -0.035491
Pd      9.21938      7.46721     12.60794         0.030668     -0.060158      0.012958
Pd     11.62672      7.16770     11.40218        -0.005472      0.005236     -0.002502
Pd     11.71516      7.96447      8.87887        -0.045675      0.016397     -0.052421
Pd      7.38672     11.76825     11.75731        -0.073335     -0.019631     -0.007242
Pd      9.22507     14.74536      9.45035         0.028779      0.170126      0.090473
Pd      8.37165     12.53481     14.24986         0.024892     -0.016186     -0.051344
Pd     14.09696     14.24454      8.31267         0.054350      0.003857      0.014472
Pd     11.52817     13.62532      8.73779        -0.123356      0.086725      0.045996
Pd     14.16842     11.67950      8.89737        -0.006522      0.008201      0.002864
Pd      8.73739     14.02261     12.07069         0.009902     -0.044441      0.052194
Pd     12.25071     13.50754     14.14247         0.043084      0.043745     -0.040816
Pd     11.35483     14.40145     11.44869         0.000419     -0.038852      0.019225
Pd     14.07331     13.57556     12.25908        -0.016493      0.007997      0.060521
Pd     12.42125     12.14204     10.72531        -0.051838     -0.109689      0.054200
Pd     12.74775     12.51943      6.69889         0.039097     -0.042676     -0.105224
Pd     13.94714      8.98768      7.96945        -0.039197      0.033040      0.055518
Pd      6.94287      8.48987      8.75067         0.014318      0.020172     -0.033655
Pd      5.63096     10.10027     10.65646         0.038156      0.037412     -0.055782
Pd      9.39510      9.44127      8.07386         0.041024     -0.100212     -0.002096
Pd      8.55148      7.00460      7.23258         0.000604     -0.037430     -0.051302
Pd      9.75240     12.12242     10.34961         0.253599     -0.021570      0.239799
Pd     11.64458     10.79040      8.48974        -0.006694     -0.046602     -0.095768
Pd     11.59951      9.08261      6.43939         0.016548      0.015400      0.028020
Pd     10.09718     11.34217      6.34572        -0.061340      0.112870      0.052684
Ir     11.26643      9.03073     13.18084        -0.019935      0.065971     -0.053001
Ir     13.20295      9.60966     10.37126         0.037975     -0.188017     -0.075216
Ir     10.55744     12.18038     12.74211        -0.243908      0.069764     -0.140025
Ir      7.64358     11.00596      9.21994        -0.331204     -0.452706      0.234522
Ir      8.82731     12.64613      8.08818         0.301626      0.089886     -0.512545
Ir      8.17623      9.29191     10.99890        -0.019609      0.083018     -0.084344
