152
# total energy = -1005.69962832 eVH     10.35389      5.87395      7.64558         0.160132      0.099576      0.563770
H     10.62451     15.10445      7.64558        -0.113849     -0.149098      0.497096
H     10.62451      5.87395     13.33282         0.580455      0.095271     -0.753289
H     10.35389     15.10445     13.33282         0.034401     -0.163242     -0.426126
H      7.64558     10.35389      5.87395         0.353958      0.034850      0.166680
H      7.64558     10.62451     15.10445         0.834579      0.498531     -0.021921
H     13.33282     10.62451      5.87395        -0.446287      0.345226      0.116093
H     13.33282     10.35389     15.10445        -0.847072     -0.072052      0.013856
H      5.87395      7.64558     10.35389         0.303424      1.167732      0.042368
H     15.10445      7.64558     10.62451        -0.105655      0.482416      0.288321
H      5.87395     13.33282     10.62451         0.187963     -0.644680     -0.016095
H     15.10445     13.33282     10.35389        -0.070781     -0.960216     -0.212798
H      5.87395     10.35389      7.64558         0.212307      0.041908      0.448582
H     15.10445     10.62451      7.64558        -0.138819      0.495081      0.781461
H      5.87395     10.62451     13.33282         0.110913      0.365446     -0.884900
H     15.10445     10.35389     13.33282        -0.073239     -0.036363     -0.660489
H     10.35389      7.64558      5.87395         0.336353      1.138679      0.054139
H     10.62451      7.64558     15.10445         0.712957      0.659168     -0.190798
H     10.62451     13.33282      5.87395        -0.399442     -0.800554      0.260651
H     10.35389     13.33282     15.10445        -0.088893     -0.467687     -0.280932
H      7.64558      5.87395     10.35389         0.901643      0.051253     -0.234858
H      7.64558     15.10445     10.62451         0.813671     -0.182730      0.015118
H     13.33282      5.87395     10.62451        -0.742216      0.178453      0.531583
H     13.33282     15.10445     10.35389        -0.381405     -0.116927     -0.100367
H     12.45634     12.45634     19.01126         0.244862      0.270100     -0.234894
H     19.01126     19.01126     19.01126        -0.270022     -0.247504     -0.246427
H     19.01126     12.45634     12.45634        -0.274654      0.263770      0.221793
H     12.45634     19.01126     12.45634         0.235802     -0.263337      0.271907
C     10.35284      5.61067      6.59456        -0.326292     -0.711384     -0.064830
C     10.62556     15.36773      6.59456         0.077766      0.359476     -0.255476
C     10.62556      5.61067     14.38384        -0.157815     -0.502193      0.036551
C     10.35284     15.36773     14.38384         0.012694      0.207178      0.388243
C      6.59456     10.35284      5.61067        -0.380891      0.010454     -0.255019
C      6.59456     10.62556     15.36773        -0.516054      0.010597      0.628012
C     14.38384     10.62556      5.61067        -0.242107     -0.466186     -0.649937
C     14.38384     10.35284     15.36773         1.029462     -0.086452      0.180555
C      5.61067      6.59456     10.35284        -0.685411     -0.187257     -0.356424
C     15.36773      6.59456     10.62556         0.549546      0.005986     -0.310333
C      5.61067     14.38384     10.62556        -0.272963      0.788654      0.004112
C     15.36773     14.38384     10.35284         0.297935      0.966682      0.037505
C      5.61067     10.35284      6.59456        -0.282591     -0.010570     -0.739503
C     15.36773     10.62556      6.59456         0.480868     -0.274921      0.177458
C      5.61067     10.62556     14.38384        -0.619012     -0.125737      0.217925
C     15.36773     10.35284     14.38384         0.425660     -0.040170      1.020986
C     10.35284      6.59456      5.61067        -0.172590     -0.717952     -0.564446
C     10.62556      6.59456     15.36773        -0.113728     -0.287332      0.593231
C     10.62556     14.38384      5.61067         0.206191      1.103690     -0.367270
C     10.35284     14.38384     15.36773        -0.002943      0.800853      0.387811
C      6.59456      5.61067     10.35284         0.000601     -1.059767      0.199327
C      6.59456     15.36773     10.62556        -0.981048      0.230873      0.085552
C     14.38384      5.61067     10.62556         0.336342     -0.541779     -0.370773
C     14.38384     15.36773     10.35284         0.150476      0.407082     -0.074471
C     10.40319      3.19606      7.29314         0.007900      0.823060     -0.467567
C     10.35913      4.25547      6.23373         0.070791     -0.559347      0.090363
C      0.08601      7.29314      7.29314        -0.046821     -0.683144     -0.260922
C      0.13007      6.23373      6.23373        -0.038191      0.154354      0.517929
C      0.08601      3.19606      3.19606         0.013570      1.403544      0.273606
C      0.13007      4.25547      4.25547         0.032340     -0.694510     -0.211159
C     10.40319      7.29314      3.19606         0.006117     -0.328740      0.274285
C     10.35913      6.23373      4.25547         0.027546      0.031893     -0.729557
C      7.29314     10.40319      3.19606        -0.249780      0.017759      0.553598
C      6.23373     10.35913      4.25547         0.148075      0.047127     -0.064037
C      7.29314      0.08601      7.29314        -0.721784     -0.074961     -0.319813
C      6.23373      0.13007      6.23373         0.767055     -0.141161      0.439106
C      3.19606      0.08601      3.19606         0.956697     -0.021110      0.586615
C      4.25547      0.13007      4.25547        -0.560456     -0.071960     -0.597347
C      3.19606     10.40319      7.29314         0.521531     -0.009765     -0.763156
C      4.25547     10.35913      6.23373        -0.274841      0.069261      0.212953
C      3.19606      7.29314     10.40319         0.284912     -1.280241      0.030476
C      4.25547      6.23373     10.35913        -1.021661      0.026328      0.113520
C      7.29314      7.29314      0.08601        -0.429118     -0.412126     -0.016937
C      6.23373      6.23373      0.13007         0.509576      0.237250      0.007018
C      3.19606      3.19606      0.08601         0.457596      0.373473     -0.036747
C      4.25547      4.25547      0.13007        -0.135663     -0.604762     -0.041164
C      7.29314      3.19606     10.40319        -0.366424      0.427737      0.056758
C      6.23373      4.25547     10.35913         0.265628     -0.729077      0.137115
O     10.43466      3.58206      8.50569        -0.012129      0.065201      0.462952
O     10.54374     17.39634      8.50569         0.057909     -0.111182      0.400326
O     10.54374      3.58206     12.47271         0.030121     -0.119785     -0.156301
O     10.43466     17.39634     12.47271        -0.030283     -0.172729     -0.519550
O      8.50569     10.43466      3.58206         0.266398     -0.022324      0.009378
O      8.50569     10.54374     17.39634         0.727721     -0.022438     -0.170622
O     12.47271     10.54374      3.58206        -0.821477      0.099185      0.089050
O     12.47271     10.43466     17.39634        -0.465103      0.032166     -0.081467
O      3.58206      8.50569     10.43466         0.160295      1.058614     -0.027163
O     17.39634      8.50569     10.54374        -0.158199      0.574373      0.070917
O      3.58206     12.47271     10.54374         0.102928     -0.429178      0.045407
O     17.39634     12.47271     10.43466        -0.147892     -0.536260     -0.029379
O      3.58206     10.43466      8.50569         0.077991     -0.087314      0.615922
O     17.39634     10.54374      8.50569        -0.058879      0.086433      0.456997
O      3.58206     10.54374     12.47271         0.001804      0.032037     -0.489819
O     17.39634     10.43466     12.47271        -0.236163     -0.044334     -0.654844
O     10.43466      8.50569      3.58206        -0.037972      0.448192      0.139950
O     10.54374      8.50569     17.39634        -0.029726      0.646843     -0.194557
O     10.54374     12.47271      3.58206         0.040887     -1.016705      0.119015
O     10.43466     12.47271     17.39634         0.052547     -0.787364     -0.206034
O      8.50569      3.58206     10.43466         0.556958      0.156416     -0.056410
O      8.50569     17.39634     10.54374         0.517870     -0.184798      0.004613
O     12.47271      3.58206     10.54374        -0.607414      0.197894      0.001403
O     12.47271     17.39634     10.43466        -0.242909      0.063206     -0.044012
O     11.90042     11.90042     19.56718        -0.257318     -0.300420      0.234550
O     19.56718     19.56718     19.56718         0.321967      0.296758      0.266207
O     19.56718     11.90042     11.90042         0.312685     -0.261479     -0.237539
O     11.90042     19.56718     11.90042        -0.236688      0.301717     -0.324386
O      9.45224      1.03696      9.45224         0.000178      0.077498     -0.115685
O      1.03696      9.45224      9.45224         0.089862     -0.072865     -0.155494
O      1.03696      1.03696      1.03696         0.111720      0.172187      0.032763
O      9.45224      9.45224      1.03696        -0.096229     -0.110353      0.019681
Zr     10.48920      2.52580     10.48920        -0.102624     -0.239976     -0.011212
Zr     10.48920     18.45260     10.48920        -0.095585      0.188716      0.140090
Zr     10.48920     10.48920      2.52580        -0.112452     -0.430359     -0.221295
Zr     10.48920     10.48920     18.45260        -0.191856     -0.037505      0.395527
Zr      2.52580     10.48920     10.48920        -0.355788      0.261283      0.274050
Zr     18.45260     10.48920     10.48920         0.177349      0.003967     -0.138564
Pd     13.62311      8.94439      9.17240        -0.009234     -0.006158      0.020305
Pd      5.69768      9.78093     10.04042        -0.025403      0.026624      0.010805
Pd      6.79668     11.60472     11.69039        -0.018410      0.064920     -0.013379
Pd     12.19107     13.09773      7.33087        -0.004903     -0.004046      0.001778
Pd     12.05121      7.86197      7.25780        -0.022679     -0.007295      0.033815
Pd      8.29192      7.04845      6.57405        -0.001694     -0.005973     -0.000741
Pd     10.89342     11.27231      5.58084        -0.010395     -0.010315      0.007659
Pd     14.59893      8.53153      6.72479        -0.023258      0.000897      0.013305
Pd      9.65426     11.79823      7.99681         0.002487     -0.002623      0.005518
Pd      6.78748      6.78812     12.27412         0.054060      0.009014     -0.017292
Pd      6.37744      7.61526      8.26983         0.007906      0.017759      0.001595
Pd      6.86978      8.71208     14.04648        -0.067587     -0.050722      0.062341
Pd     11.57229      6.53372      9.57959        -0.023409     -0.015304      0.038179
Pd      9.72326      9.29278      6.92241        -0.023376     -0.003010      0.033377
Pd      9.01663     13.96712      9.39023         0.000262      0.005353     -0.012747
Pd      9.82263      7.19112     11.62379        -0.105337      0.041414      0.024159
Pd     10.51676      8.97267      9.58277         0.004350     -0.005221      0.024029
Pd      9.33725     11.33281     10.60029        -0.000399      0.033165      0.001699
Pd      8.87404      7.00673      9.14352         0.005808     -0.006808     -0.006918
Pd      8.69260      6.76716     14.04123        -0.023976     -0.026436      0.068619
Pd      7.91737      9.11344     11.56873        -0.062540      0.092115      0.089909
Pd     11.96591     10.49952      7.83622         0.001499     -0.008409     -0.000177
Pd      7.13467     12.05417      9.09246         0.001112     -0.005226     -0.022869
Pd      8.03385      9.58407      8.88104         0.007794     -0.013267      0.079284
Pd     14.11623      6.48380      8.46493        -0.019069     -0.004470      0.009164
Pd     12.49692      8.25224     11.49173        -0.022568      0.000206      0.012854
Pd      8.77272     11.40596     13.41096        -0.015289      0.035813     -0.012606
Pd     13.90677     11.92889      9.03207         0.005114      0.003635     -0.008512
Pd     12.87902     10.58145     13.08923         0.002322      0.005842     -0.008462
Pd     14.74137     10.34378     11.13883         0.008065      0.009944     -0.003462
Pd     12.06338     10.74937     10.57959         0.004710      0.016183     -0.011034
Pd     11.44902     13.16570      9.85845         0.004876      0.020750      0.001412
Pd     13.56673     12.82826     11.66396         0.006838      0.007788     -0.001840
Pd     11.04260     12.53404     12.44464         0.007099      0.011314     -0.000293
Pd     11.05148     11.31815     14.86776        -0.025034     -0.030826     -0.016262
Pd     10.46384      9.60296     12.50578        -0.008207      0.032433     -0.025399
Pd      9.38934      9.25651     14.85340        -0.047443     -0.008852     -0.062829
Pd      8.67774     13.61362     11.99684         0.015627      0.040698     -0.002700
