152
# total energy = -1022.16643999 eVH     10.35389      5.87395      7.64558         0.376858     -0.066565      1.077970
H     10.62451     15.10445      7.64558         0.039081     -0.106023      0.606400
H     10.62451      5.87395     13.33282         0.125930      0.112739     -0.650940
H     10.35389     15.10445     13.33282        -0.275708     -0.057790     -0.552841
H      7.64558     10.35389      5.87395         0.440030     -0.046297      0.162780
H      7.64558     10.62451     15.10445         0.632096     -0.093104     -0.078116
H     13.33282     10.62451      5.87395        -1.026725     -0.413081     -0.129533
H     13.33282     10.35389     15.10445        -0.464609     -0.046916     -0.046675
H      5.87395      7.64558     10.35389         0.061967      1.220330     -0.141308
H     15.10445      7.64558     10.62451        -0.160100      0.384739     -0.071186
H      5.87395     13.33282     10.62451         0.142183     -0.381265     -0.062792
H     15.10445     13.33282     10.35389        -0.073865     -1.034594     -0.329206
H      5.87395     10.35389      7.64558         0.108505     -0.002875      0.382068
H     15.10445     10.62451      7.64558         0.046108     -0.037589      0.944175
H      5.87395     10.62451     13.33282         0.243535     -0.068037     -0.425547
H     15.10445     10.35389     13.33282        -0.181969      0.086367     -0.604253
H     10.35389      7.64558      5.87395         0.180068      0.959384      0.003007
H     10.62451      7.64558     15.10445        -0.051032      0.818050     -0.062292
H     10.62451     13.33282      5.87395         0.461965     -0.444427      0.221312
H     10.35389     13.33282     15.10445        -0.145583     -0.960954     -0.115387
H      7.64558      5.87395     10.35389         0.440563      0.100021     -0.130598
H      7.64558     15.10445     10.62451         0.903645     -0.196953      0.145194
H     13.33282      5.87395     10.62451        -0.439176      0.198837     -0.057834
H     13.33282     15.10445     10.35389        -1.028536     -0.069111      0.283413
H     12.45634     12.45634     19.01126         0.273824      0.258711     -0.217322
H     19.01126     19.01126     19.01126        -0.251422     -0.236373     -0.261135
H     19.01126     12.45634     12.45634        -0.244963      0.274484      0.232825
H     12.45634     19.01126     12.45634         0.205592     -0.284085      0.259911
C     10.35284      5.61067      6.59456        -0.042185     -0.500315     -0.824863
C     10.62556     15.36773      6.59456         0.041979      0.348306     -0.862441
C     10.62556      5.61067     14.38384        -0.013726     -0.294805      0.738352
C     10.35284     15.36773     14.38384         0.238834      0.668850      0.028112
C      6.59456     10.35284      5.61067        -0.718661     -0.030392     -0.284995
C      6.59456     10.62556     15.36773        -0.950180      0.100925      0.430395
C     14.38384     10.62556      5.61067         1.113421      0.252751     -0.294638
C     14.38384     10.35284     15.36773         0.753495     -0.108578      0.446914
C      5.61067      6.59456     10.35284        -0.342694     -0.885169      0.269226
C     15.36773      6.59456     10.62556         0.179862     -0.466916      0.037743
C      5.61067     14.38384     10.62556        -0.236214      0.373630     -0.008591
C     15.36773     14.38384     10.35284         0.309086      0.502039      0.253083
C      5.61067     10.35284      6.59456        -0.347621      0.016457     -0.772022
C     15.36773     10.62556      6.59456         0.529107     -0.145935     -1.289202
C      5.61067     10.62556     14.38384        -0.487944      0.020817      1.110267
C     15.36773     10.35284     14.38384         0.550482     -0.209985      1.373398
C     10.35284      6.59456      5.61067         0.000073     -1.216356     -0.728245
C     10.62556      6.59456     15.36773         0.079360     -1.078382      0.410347
C     10.62556     14.38384      5.61067        -0.075023      1.383678     -0.708636
C     10.35284     14.38384     15.36773         0.056479      0.666230      0.531734
C      6.59456      5.61067     10.35284         0.051892     -0.849239      0.141163
C      6.59456     15.36773     10.62556        -1.693085      0.482115      0.083633
C     14.38384      5.61067     10.62556         0.570461     -0.223734      0.011671
C     14.38384     15.36773     10.35284         0.598725      0.489080     -0.286082
C     10.40319      3.19606      7.29314         0.023746      0.985633     -0.231348
C     10.35913      4.25547      6.23373        -0.008482     -0.277268      0.823020
C      0.08601      7.29314      7.29314        -0.009999     -0.228448     -0.468782
C      0.13007      6.23373      6.23373        -0.012751      0.191781      0.177613
C      0.08601      3.19606      3.19606        -0.023924      0.719538      0.140420
C      0.13007      4.25547      4.25547        -0.114363     -0.206391     -0.141829
C     10.40319      7.29314      3.19606        -0.004040     -0.623270      0.463438
C     10.35913      6.23373      4.25547        -0.001450      0.605029     -0.291015
C      7.29314     10.40319      3.19606        -0.421694      0.018457      0.932039
C      6.23373     10.35913      4.25547         0.265286     -0.018321     -0.201853
C      7.29314      0.08601      7.29314        -0.295033     -0.053111     -0.274199
C      6.23373      0.13007      6.23373         0.341968     -0.111434      0.228720
C      3.19606      0.08601      3.19606         0.302239     -0.064712      1.351246
C      4.25547      0.13007      4.25547        -0.255278     -0.016429     -0.401940
C      3.19606     10.40319      7.29314         0.777607      0.020546     -0.247776
C      4.25547     10.35913      6.23373        -0.117580      0.031737      0.121766
C      3.19606      7.29314     10.40319         0.509305     -1.253606      0.039361
C      4.25547      6.23373     10.35913        -0.776327      0.686549      0.029382
C      7.29314      7.29314      0.08601        -0.659289     -0.226372     -0.019525
C      6.23373      6.23373      0.13007         0.184724      0.247625     -0.005708
C      3.19606      3.19606      0.08601         0.282765      0.255164     -0.014409
C      4.25547      4.25547      0.13007        -0.049459     -0.043864      0.002438
C      7.29314      3.19606     10.40319        -0.319631      0.692020      0.033532
C      6.23373      4.25547     10.35913         0.655384     -0.237751      0.028724
O     10.43466      3.58206      8.50569        -0.053212      0.029901      0.281944
O     10.54374     17.39634      8.50569        -0.024217     -0.202063      0.617256
O     10.54374      3.58206     12.47271         0.073147      0.046629     -0.277527
O     10.43466     17.39634     12.47271        -0.025739     -0.131365     -0.550016
O      8.50569     10.43466      3.58206         0.384894     -0.002373     -0.013714
O      8.50569     10.54374     17.39634         0.454263      0.057683     -0.135994
O     12.47271     10.54374      3.58206        -0.201864      0.071216     -0.119029
O     12.47271     10.43466     17.39634        -0.866817      0.030162     -0.214622
O      3.58206      8.50569     10.43466         0.036463      0.899960      0.049022
O     17.39634      8.50569     10.54374        -0.024921      0.384870      0.079769
O      3.58206     12.47271     10.54374         0.053045     -0.432478      0.059847
O     17.39634     12.47271     10.43466        -0.155085     -0.707626      0.003998
O      3.58206     10.43466      8.50569        -0.055542     -0.064593      0.215830
O     17.39634     10.54374      8.50569        -0.146224      0.052538      0.455736
O      3.58206     10.54374     12.47271        -0.041219     -0.066562     -0.910817
O     17.39634     10.43466     12.47271        -0.205943      0.046155     -0.800853
O     10.43466      8.50569      3.58206         0.016843      0.662932      0.198391
O     10.54374      8.50569     17.39634         0.058146      0.387374     -0.067404
O     10.54374     12.47271      3.58206        -0.064310     -0.733436      0.252069
O     10.43466     12.47271     17.39634         0.063223     -0.834111     -0.274608
O      8.50569      3.58206     10.43466         0.490483      0.090262     -0.038384
O      8.50569     17.39634     10.54374         0.662113     -0.224247     -0.060843
O     12.47271      3.58206     10.54374        -0.534669      0.161437      0.037131
O     12.47271     17.39634     10.43466        -0.460719     -0.014868     -0.053368
O     11.90042     11.90042     19.56718        -0.312505     -0.312359      0.254400
O     19.56718     19.56718     19.56718         0.291978      0.277474      0.317323
O     19.56718     11.90042     11.90042         0.278566     -0.330243     -0.228769
O     11.90042     19.56718     11.90042        -0.222666      0.296309     -0.249156
O      9.45224      1.03696      9.45224        -0.071934      0.056169     -0.069502
O      1.03696      9.45224      9.45224         0.067879     -0.139514     -0.057148
O      1.03696      1.03696      1.03696         0.041209      0.031126      0.186491
O      9.45224      9.45224      1.03696        -0.040467     -0.080491      0.130980
Zr     10.48920      2.52580     10.48920         0.003132     -0.063240     -0.027821
Zr     10.48920     18.45260     10.48920         0.035244      0.276392     -0.035004
Zr     10.48920     10.48920      2.52580        -0.033533     -0.059811     -0.356532
Zr     10.48920     10.48920     18.45260        -0.159100     -0.202383      0.309345
Zr      2.52580     10.48920     10.48920        -0.328459      0.366290     -0.471246
Zr     18.45260     10.48920     10.48920         0.232200      0.041663     -0.306444
Pd      9.01550     10.28074     13.53910         0.086752     -0.210845     -0.207400
Pd     10.63878      9.72512     11.37170        -0.434598     -0.107474      0.348583
Pd     13.76271      8.50998     12.89799         0.012552     -0.022833     -0.085511
Pd     11.04140     11.15732     15.11454        -0.027561      0.021971      0.022346
Pd     12.79434     11.10829     13.02883        -0.031799     -0.053392      0.073653
Pd     14.99691     10.72074     11.39544         0.075782      0.054494     -0.005168
Pd      6.59330      7.39338     12.35344         0.121952      0.015352     -0.081658
Pd      9.39869      7.43789     10.24104        -0.203013      0.155250      0.201884
Pd      9.17539      7.61993     12.97552         0.097665      0.183400     -0.212338
Pd     11.72043      7.26069     11.70035        -0.050480      0.005233      0.001930
Pd     11.70419      7.61971      8.96989        -0.078808      0.150681     -0.020621
Pd      7.20858     11.82826     12.09329        -0.071130      0.139479      0.098121
Pd      8.97698     14.67562      9.32832         0.014250     -0.064735     -0.032764
Pd      8.47850     12.78489     14.31658        -0.023197     -0.034855      0.050828
Pd     13.11620     14.01818      8.67284         0.035488     -0.110837      0.051333
Pd     10.74678     13.00385      8.44384        -0.095667     -0.036704      0.068339
Pd     14.18202     11.56545      9.04998        -0.061315     -0.165414     -0.013264
Pd      8.69023     14.07223     12.00826        -0.011990      0.038522      0.055843
Pd     12.22540     13.76132     13.95219         0.005933     -0.034372      0.027274
Pd     11.22964     14.30220     11.00756        -0.036126      0.004661      0.007051
Pd     13.99473     13.35299     12.07950         0.102036      0.090373      0.055202
Pd     12.23494     11.96343     10.60946        -0.061160      0.105871     -0.000465
Pd     12.42558     11.77724      7.01219         0.077914      0.101003     -0.147152
Pd     13.59053      9.17265      7.96020        -0.053312     -0.128781     -0.048897
Pd      6.97605      8.41558      8.97715         0.048081     -0.197031     -0.043370
Pd      5.51550      9.84784     11.35261        -0.265240      0.095867      0.072831
Pd      8.80293     10.00834      7.90400         0.108563     -0.311381     -0.032532
Pd      9.13823      7.46951      7.61578        -0.020597      0.010950     -0.005944
Pd      9.38638     11.94914     10.45074         0.155311      0.074534      0.162789
Pd     11.16418     10.27284      8.92053         0.096600      0.138714     -0.280395
Pd     11.06080      9.34919      6.50195         0.077344      0.025288     -0.010519
Pd      9.66891     11.78845      6.19940        -0.002200     -0.029369      0.076464
Ir     11.35619      9.02061     13.68590        -0.076410      0.153394     -0.233092
Ir     13.02966      9.32666     10.51913         0.173600     -0.004863     -0.175159
Ir     10.53964     12.31144     12.69497        -0.086753     -0.012574     -0.115768
Ir      7.06745     10.96130      9.63195        -0.427564     -0.063309      0.045382
Ir      8.15522     12.48405      8.23482         0.137983      0.466677     -0.316508
Ir      8.04094      9.34827     11.23890         0.699525     -0.363522      0.256205
