152
# total energy = -1022.85452235 eVH     10.35389      5.87395      7.64558         0.480471      0.031567      0.902588
H     10.62451     15.10445      7.64558        -0.047765      0.046046      0.774716
H     10.62451      5.87395     13.33282         0.144728      0.115777     -0.606176
H     10.35389     15.10445     13.33282        -0.260574     -0.079084     -0.561924
H      7.64558     10.35389      5.87395         0.331539     -0.035864      0.190134
H      7.64558     10.62451     15.10445         0.616001     -0.190397     -0.143511
H     13.33282     10.62451      5.87395        -0.853942     -0.316436      0.168389
H     13.33282     10.35389     15.10445        -0.451658     -0.080380     -0.068869
H      5.87395      7.64558     10.35389         0.128336      1.125788     -0.152920
H     15.10445      7.64558     10.62451        -0.170015      0.404162     -0.087232
H      5.87395     13.33282     10.62451         0.143060     -0.405976     -0.071918
H     15.10445     13.33282     10.35389        -0.078953     -0.969610     -0.186442
H      5.87395     10.35389      7.64558         0.127530      0.039023      0.479870
H     15.10445     10.62451      7.64558         0.123843     -0.209551      0.818604
H      5.87395     10.62451     13.33282         0.269166     -0.027216     -0.393944
H     15.10445     10.35389     13.33282        -0.152998      0.015160     -0.612984
H     10.35389      7.64558      5.87395         0.065463      0.848648      0.119316
H     10.62451      7.64558     15.10445         0.022611      0.567905     -0.143065
H     10.62451     13.33282      5.87395         0.062291     -0.601761      0.180393
H     10.35389     13.33282     15.10445        -0.251393     -0.891197     -0.109217
H      7.64558      5.87395     10.35389         0.524614      0.041943     -0.132429
H      7.64558     15.10445     10.62451         0.917140     -0.206155      0.291962
H     13.33282      5.87395     10.62451        -0.436967      0.187335     -0.058808
H     13.33282     15.10445     10.35389        -0.992635     -0.101133      0.261936
H     12.45634     12.45634     19.01126         0.266912      0.257403     -0.224908
H     19.01126     19.01126     19.01126        -0.247405     -0.235040     -0.262203
H     19.01126     12.45634     12.45634        -0.240790      0.270340      0.239312
H     12.45634     19.01126     12.45634         0.211264     -0.282795      0.252750
C     10.35284      5.61067      6.59456        -0.129126     -0.433252     -0.398305
C     10.62556     15.36773      6.59456         0.022067      0.346312     -1.160308
C     10.62556      5.61067     14.38384        -0.029347     -0.223000      0.727224
C     10.35284     15.36773     14.38384         0.178751      0.773656      0.154247
C      6.59456     10.35284      5.61067        -0.411945     -0.040266     -0.180653
C      6.59456     10.62556     15.36773        -0.783480      0.151089      0.349068
C     14.38384     10.62556      5.61067         0.618724      0.286376     -0.369169
C     14.38384     10.35284     15.36773         0.724442     -0.118957      0.421664
C      5.61067      6.59456     10.35284        -0.427307     -0.754336      0.281462
C     15.36773      6.59456     10.62556         0.197915     -0.467625      0.047522
C      5.61067     14.38384     10.62556        -0.255558      0.375353     -0.023887
C     15.36773     14.38384     10.35284         0.397173      0.142745      0.188037
C      5.61067     10.35284      6.59456        -0.310305     -0.013862     -0.890823
C     15.36773     10.62556      6.59456         0.574485     -0.158557     -1.235513
C      5.61067     10.62556     14.38384        -0.458613      0.008466      0.895271
C     15.36773     10.35284     14.38384         0.519761     -0.176192      1.242019
C     10.35284      6.59456      5.61067        -0.039383     -0.905067     -0.669119
C     10.62556      6.59456     15.36773         0.046764     -0.680868      0.297422
C     10.62556     14.38384      5.61067         0.044150      1.244370     -0.690986
C     10.35284     14.38384     15.36773         0.105093      0.604915      0.654791
C      6.59456      5.61067     10.35284        -0.214297     -0.899221      0.131089
C      6.59456     15.36773     10.62556        -1.727251      0.493786      0.045388
C     14.38384      5.61067     10.62556         0.583945     -0.227592     -0.008145
C     14.38384     15.36773     10.35284         0.145246      0.559526     -0.239460
C     10.40319      3.19606      7.29314         0.015408      0.902056     -0.252247
C     10.35913      4.25547      6.23373        -0.051233     -0.371515      0.608235
C      0.08601      7.29314      7.29314        -0.008560     -0.237174     -0.467868
C      0.13007      6.23373      6.23373         0.004375      0.122156      0.211151
C      0.08601      3.19606      3.19606        -0.016370      0.637557      0.181471
C      0.13007      4.25547      4.25547        -0.090931     -0.199241     -0.167999
C     10.40319      7.29314      3.19606        -0.002014     -0.689547      0.530396
C     10.35913      6.23373      4.25547        -0.007780      0.507179     -0.402167
C      7.29314     10.40319      3.19606        -0.339353      0.023026      0.858119
C      6.23373     10.35913      4.25547         0.208536      0.012246     -0.142290
C      7.29314      0.08601      7.29314        -0.308033     -0.046107     -0.271983
C      6.23373      0.13007      6.23373         0.269107     -0.058321      0.293937
C      3.19606      0.08601      3.19606         0.435609     -0.051839      1.296457
C      4.25547      0.13007      4.25547        -0.115726     -0.028555     -0.461968
C      3.19606     10.40319      7.29314         0.701777      0.014873     -0.264792
C      4.25547     10.35913      6.23373        -0.133471      0.030500      0.103146
C      3.19606      7.29314     10.40319         0.608524     -1.270800      0.025281
C      4.25547      6.23373     10.35913        -0.721309      0.839447      0.046578
C      7.29314      7.29314      0.08601        -0.654527     -0.170100     -0.022256
C      6.23373      6.23373      0.13007         0.171961      0.271670     -0.008670
C      3.19606      3.19606      0.08601         0.241557      0.250853     -0.019586
C      4.25547      4.25547      0.13007        -0.054017     -0.036534      0.012030
C      7.29314      3.19606     10.40319        -0.372142      0.796944      0.015357
C      6.23373      4.25547     10.35913         0.882224     -0.157767      0.008447
O     10.43466      3.58206      8.50569        -0.049001      0.034101      0.321361
O     10.54374     17.39634      8.50569        -0.023919     -0.182026      0.600933
O     10.54374      3.58206     12.47271         0.055078      0.064215     -0.325185
O     10.43466     17.39634     12.47271        -0.022610     -0.126056     -0.584332
O      8.50569     10.43466      3.58206         0.381101     -0.024957     -0.013736
O      8.50569     10.54374     17.39634         0.470700      0.053348     -0.143492
O     12.47271     10.54374      3.58206        -0.284041      0.048954     -0.075316
O     12.47271     10.43466     17.39634        -0.851249      0.020289     -0.224290
O      3.58206      8.50569     10.43466         0.042043      0.922734      0.039938
O     17.39634      8.50569     10.54374        -0.039957      0.338851      0.077725
O      3.58206     12.47271     10.54374         0.064841     -0.421162      0.064221
O     17.39634     12.47271     10.43466        -0.170303     -0.779620      0.019774
O      3.58206     10.43466      8.50569        -0.055044     -0.066242      0.228277
O     17.39634     10.54374      8.50569        -0.136462      0.042728      0.459053
O      3.58206     10.54374     12.47271        -0.016214     -0.051857     -0.890330
O     17.39634     10.43466     12.47271        -0.197920      0.043167     -0.766716
O     10.43466      8.50569      3.58206         0.044553      0.679338      0.190065
O     10.54374      8.50569     17.39634         0.053663      0.433434     -0.080651
O     10.54374     12.47271      3.58206        -0.006399     -0.725093      0.225963
O     10.43466     12.47271     17.39634         0.047466     -0.848240     -0.273971
O      8.50569      3.58206     10.43466         0.491839      0.074961     -0.038508
O      8.50569     17.39634     10.54374         0.653341     -0.251779     -0.060560
O     12.47271      3.58206     10.54374        -0.484876      0.163734      0.039689
O     12.47271     17.39634     10.43466        -0.531180     -0.037486     -0.029564
O     11.90042     11.90042     19.56718        -0.304288     -0.312337      0.264623
O     19.56718     19.56718     19.56718         0.287188      0.271928      0.320597
O     19.56718     11.90042     11.90042         0.279803     -0.330577     -0.245259
O     11.90042     19.56718     11.90042        -0.228457      0.290458     -0.241015
O      9.45224      1.03696      9.45224        -0.074490      0.047504     -0.066995
O      1.03696      9.45224      9.45224         0.055286     -0.144745     -0.057313
O      1.03696      1.03696      1.03696         0.044052      0.032614      0.186715
O      9.45224      9.45224      1.03696        -0.040103     -0.092180      0.121577
Zr     10.48920      2.52580     10.48920        -0.007805     -0.072869     -0.023266
Zr     10.48920     18.45260     10.48920         0.058008      0.307117     -0.072861
Zr     10.48920     10.48920      2.52580        -0.103147      0.016402     -0.370174
Zr     10.48920     10.48920     18.45260        -0.132450     -0.152873      0.327515
Zr      2.52580     10.48920     10.48920        -0.349924      0.317396     -0.465351
Zr     18.45260     10.48920     10.48920         0.243779      0.037145     -0.261878
Pd      9.04225     10.25882     13.32903        -0.014226     -0.013181      0.006208
Pd     10.58608      9.72781     10.98619         0.002117     -0.015271     -0.041138
Pd     13.76231      8.53902     12.68472         0.004708      0.002041     -0.005638
Pd     10.99998     11.07353     15.01678         0.000710     -0.015832     -0.001456
Pd     12.84916     11.17484     13.01120         0.017698      0.000773      0.005659
Pd     14.98018     10.93824     11.34406         0.013241      0.008065     -0.006849
Pd      6.64811      7.43943     12.34191         0.001007      0.017357      0.001532
Pd      9.22899      7.26298     10.12088         0.007942      0.009980     -0.030276
Pd      9.26324      7.60346     12.79658         0.009458     -0.011193     -0.019987
Pd     11.69529      7.28620     11.46395         0.008774      0.004954     -0.009003
Pd     11.40177      7.99577      8.86230         0.029324     -0.003470     -0.009439
Pd      7.26285     11.83405     11.95493         0.004789     -0.002817     -0.015535
Pd      8.90206     14.67375      9.33394         0.033125      0.010828      0.013624
Pd      8.41863     12.65455     14.32225        -0.010715     -0.010106     -0.001577
Pd     13.53643     14.09528      8.55769         0.074966      0.025346     -0.044018
Pd     10.98961     13.34294      8.52050         0.064786      0.032265      0.033117
Pd     14.09181     11.52411      8.92647         0.005082      0.024898     -0.004611
Pd      8.61926     14.10742     12.10245         0.008545     -0.005317     -0.000414
Pd     12.24274     13.73028     14.02474        -0.005063     -0.013127      0.003131
Pd     11.15583     14.43791     11.15466         0.024254     -0.012941      0.037308
Pd     14.06069     13.54935     12.17570        -0.010050      0.008256     -0.004333
Pd     12.31242     12.15806     10.67044        -0.003532     -0.021674      0.011861
Pd     12.67108     12.33326      6.71818         0.013323      0.031492     -0.015307
Pd     13.66228      8.94078      7.92359         0.033945      0.006167      0.005570
Pd      6.86218      8.46194      8.85255         0.012003      0.008917     -0.006981
Pd      5.52857      9.93505     11.26394         0.003636      0.026840     -0.047312
Pd      9.14982      9.73980      8.31122         0.026613     -0.014842     -0.011471
Pd      8.81271      7.23299      7.46200        -0.011839     -0.003584     -0.032115
Pd      9.52845     12.08441     10.42272         0.013466      0.004555     -0.008866
Pd     11.53661     10.71170      8.57379         0.016704      0.007528     -0.029330
Pd     11.24769      9.23723      6.44089         0.035744     -0.020128     -0.007712
Pd      9.90950     11.55230      6.39045         0.024126     -0.027979     -0.017364
Ir     11.35056      9.09690     13.36423         0.004480      0.017380     -0.039128
Ir     13.07584      9.48347     10.39442         0.003683      0.011188     -0.001372
Ir     10.53137     12.35919     12.70865        -0.000192     -0.022749      0.012944
Ir      7.14679     10.97795      9.50480         0.057642      0.017005     -0.028953
Ir      8.40637     12.45975      8.18540         0.061566      0.013054     -0.002401
Ir      8.06839      9.29732     11.11670        -0.010139      0.007696     -0.006665
