26
# total energy = -205.61036655 eVC      0.70366      1.25197      7.50000        -0.015518      0.005710      0.000000
C     10.79679      6.56674      7.50000        -0.005985     -0.000456     -0.000000
C      0.73799     11.42804      7.50000        -0.001754      0.008015      0.000000
C     11.53049      5.33346      7.50000         0.015518     -0.005710      0.000000
C      1.43736      0.01868      7.50000         0.005985      0.000456      0.000000
C     11.49616     -4.84262      7.50000         0.001754     -0.008015      0.000000
C     10.79582     -3.64886      7.50000         0.006347     -0.003969     -0.000000
C     10.85615      4.12467      7.50000        -0.004754      0.000938     -0.000000
C      2.82613      0.04396      7.50000         0.020411     -0.007632      0.000000
C      1.43833     10.23428      7.50000        -0.006347      0.003969     -0.000000
C      1.37800      2.46076      7.50000         0.004754     -0.000938     -0.000000
C      9.40802      6.54146      7.50000        -0.020411      0.007632     -0.000000
N      7.76364      0.26054      7.50000        -0.001865      0.002113      0.000000
N      4.47051      6.32489      7.50000         0.001865     -0.002113      0.000000
N      4.00878      0.08351      7.50000        -0.024673     -0.003853      0.000000
N     10.23056     -2.60934      7.50000        -0.004794      0.004855      0.000000
N     10.29614      3.08230      7.50000         0.002957     -0.000514      0.000000
N      8.22537      6.50191      7.50000         0.024673      0.003853     -0.000000
N      2.00359      9.19476      7.50000         0.004794     -0.004855      0.000000
N      1.93801      3.50312      7.50000        -0.002957      0.000514     -0.000000
Ir      2.99295      7.53253      7.50000         0.003762     -0.011570      0.000000
Ir      2.98133      5.13090      7.50000         0.008565      0.007210      0.000000
Ir      6.29762      6.40894      7.50000         0.015912     -0.003243      0.000000
Ir      9.24120     -0.94711      7.50000        -0.003762      0.011570      0.000000
Ir      9.25282      1.45452      7.50000        -0.008565     -0.007210      0.000000
Ir      5.93653      0.17648      7.50000        -0.015912      0.003243      0.000000
