152
# total energy = -1004.64199067 eVH     10.35389      5.87395      7.64558        -0.065358      0.080536      0.685876
H     10.62451     15.10445      7.64558        -0.082274     -0.183529      0.537295
H     10.62451      5.87395     13.33282         0.407278      0.019697     -0.861698
H     10.35389     15.10445     13.33282         0.045183     -0.165387     -0.489899
H      7.64558     10.35389      5.87395         0.358646      0.035798      0.158388
H      7.64558     10.62451     15.10445         0.950330      0.610228      0.020500
H     13.33282     10.62451      5.87395        -0.524750      0.237724      0.077783
H     13.33282     10.35389     15.10445        -0.865257     -0.248857      0.056847
H      5.87395      7.64558     10.35389         0.265006      1.658944      0.218129
H     15.10445      7.64558     10.62451        -0.098154      0.530083      0.249050
H      5.87395     13.33282     10.62451         0.194622     -0.581139     -0.016683
H     15.10445     13.33282     10.35389         0.079578     -1.181032     -0.393134
H      5.87395     10.35389      7.64558         0.159849      0.038082      0.479557
H     15.10445     10.62451      7.64558        -0.179028      0.714251      1.104753
H      5.87395     10.62451     13.33282        -0.003988      0.535817     -1.200581
H     15.10445     10.35389     13.33282         0.036011     -0.191798     -0.786746
H     10.35389      7.64558      5.87395         0.136217      1.399288      0.078483
H     10.62451      7.64558     15.10445         0.527651      0.748402     -0.112735
H     10.62451     13.33282      5.87395        -0.361292     -0.673848      0.318303
H     10.35389     13.33282     15.10445        -0.240037     -0.485338     -0.331969
H      7.64558      5.87395     10.35389         1.105551     -0.142536     -0.134330
H      7.64558     15.10445     10.62451         0.822287     -0.190929     -0.050754
H     13.33282      5.87395     10.62451        -0.576784      0.138296      0.593495
H     13.33282     15.10445     10.35389        -0.554505     -0.045622     -0.242096
H     12.45634     12.45634     19.01126         0.264535      0.262450     -0.228580
H     19.01126     19.01126     19.01126        -0.273097     -0.258392     -0.223626
H     19.01126     12.45634     12.45634        -0.277784      0.258368      0.223238
H     12.45634     19.01126     12.45634         0.239533     -0.275016      0.252080
C     10.35284      5.61067      6.59456        -0.194785     -0.821394     -0.235285
C     10.62556     15.36773      6.59456         0.029760      0.216085     -0.385786
C     10.62556      5.61067     14.38384        -0.040037     -0.391043      0.588809
C     10.35284     15.36773     14.38384         0.002743      0.281590      0.493377
C      6.59456     10.35284      5.61067        -0.441245      0.035588     -0.265697
C      6.59456     10.62556     15.36773        -0.889799      0.153641      0.690710
C     14.38384     10.62556      5.61067         0.493596     -0.124722     -0.852989
C     14.38384     10.35284     15.36773         0.979082     -0.106035      0.314786
C      5.61067      6.59456     10.35284        -0.861178     -0.711067     -0.374825
C     15.36773      6.59456     10.62556         0.674328     -0.064321     -0.276479
C      5.61067     14.38384     10.62556        -0.229831      0.653570      0.004731
C     15.36773     14.38384     10.35284         0.327843      1.131900      0.081311
C      5.61067     10.35284      6.59456        -0.267514      0.016210     -0.723357
C     15.36773     10.62556      6.59456         0.592396     -0.163523     -0.453489
C      5.61067     10.62556     14.38384        -0.571740     -0.010635      0.775692
C     15.36773     10.35284     14.38384         0.507304     -0.084369      1.063245
C     10.35284      6.59456      5.61067        -0.039256     -0.895611     -0.419695
C     10.62556      6.59456     15.36773         0.140476     -0.793986      0.504937
C     10.62556     14.38384      5.61067         0.081366      1.177247     -0.310577
C     10.35284     14.38384     15.36773        -0.029148      1.078229      0.524367
C      6.59456      5.61067     10.35284        -0.329219     -1.243900      0.140171
C      6.59456     15.36773     10.62556        -0.974299      0.173957      0.121026
C     14.38384      5.61067     10.62556        -0.118379     -0.458854     -0.343988
C     14.38384     15.36773     10.35284         0.264319      0.534575     -0.047993
C     10.40319      3.19606      7.29314         0.015880      0.963931     -0.492208
C     10.35913      4.25547      6.23373         0.062616     -0.594499      0.123014
C      0.08601      7.29314      7.29314        -0.029621     -0.948967     -0.191240
C      0.13007      6.23373      6.23373        -0.094028      0.272120      0.316487
C      0.08601      3.19606      3.19606         0.045622      1.341547      0.151255
C      0.13007      4.25547      4.25547        -0.037847     -0.375568     -0.324094
C     10.40319      7.29314      3.19606        -0.000472     -0.472614      0.285937
C     10.35913      6.23373      4.25547        -0.005449      0.104939     -0.801620
C      7.29314     10.40319      3.19606        -0.277626      0.018693      0.552299
C      6.23373     10.35913      4.25547         0.200485      0.087079     -0.111104
C      7.29314      0.08601      7.29314        -1.027916     -0.100984     -0.353334
C      6.23373      0.13007      6.23373         0.738327     -0.218000      0.425414
C      3.19606      0.08601      3.19606         1.162273     -0.025918      0.498461
C      4.25547      0.13007      4.25547        -0.672900     -0.193520     -0.404182
C      3.19606     10.40319      7.29314         0.584706      0.017711     -0.431819
C      4.25547     10.35913      6.23373        -0.241404      0.109395      0.227549
C      3.19606      7.29314     10.40319         0.353126     -0.990873      0.033824
C      4.25547      6.23373     10.35913        -1.127101      0.128560      0.171023
C      7.29314      7.29314      0.08601        -0.470346     -0.503647     -0.014011
C      6.23373      6.23373      0.13007         0.484641      0.324089      0.022943
C      3.19606      3.19606      0.08601         0.506128      0.408471     -0.028102
C      4.25547      4.25547      0.13007        -0.056330     -0.695154     -0.090900
C      7.29314      3.19606     10.40319        -0.400381      0.509799      0.058190
C      6.23373      4.25547     10.35913         0.493946     -0.737983      0.213432
O     10.43466      3.58206      8.50569        -0.016793      0.047485      0.457658
O     10.54374     17.39634      8.50569         0.059267     -0.029554      0.252555
O     10.54374      3.58206     12.47271         0.002954     -0.096968     -0.103282
O     10.43466     17.39634     12.47271        -0.037083     -0.140327     -0.506566
O      8.50569     10.43466      3.58206         0.337934     -0.021876      0.033623
O      8.50569     10.54374     17.39634         0.859707     -0.057641     -0.166502
O     12.47271     10.54374      3.58206        -0.873050      0.104056      0.067369
O     12.47271     10.43466     17.39634        -0.581608      0.025239     -0.133753
O      3.58206      8.50569     10.43466         0.189061      0.959687     -0.016711
O     17.39634      8.50569     10.54374        -0.150737      0.672351      0.047949
O      3.58206     12.47271     10.54374         0.104168     -0.537079      0.048844
O     17.39634     12.47271     10.43466        -0.164483     -0.608650     -0.030839
O      3.58206     10.43466      8.50569         0.071137     -0.067050      0.482417
O     17.39634     10.54374      8.50569         0.017509      0.099148      0.405624
O      3.58206     10.54374     12.47271        -0.010380      0.031458     -0.411733
O     17.39634     10.43466     12.47271        -0.218558     -0.032885     -0.680218
O     10.43466      8.50569      3.58206        -0.039227      0.563619      0.157370
O     10.54374      8.50569     17.39634        -0.081399      0.769158     -0.221700
O     10.54374     12.47271      3.58206         0.075188     -0.954511      0.143334
O     10.43466     12.47271     17.39634         0.082164     -0.808942     -0.212402
O      8.50569      3.58206     10.43466         0.572289      0.141754     -0.050540
O      8.50569     17.39634     10.54374         0.549195     -0.150711     -0.000896
O     12.47271      3.58206     10.54374        -0.675145      0.153770      0.023476
O     12.47271     17.39634     10.43466        -0.391637     -0.021426     -0.039712
O     11.90042     11.90042     19.56718        -0.309893     -0.299129      0.232693
O     19.56718     19.56718     19.56718         0.313741      0.303397      0.217937
O     19.56718     11.90042     11.90042         0.327078     -0.268395     -0.231093
O     11.90042     19.56718     11.90042        -0.258488      0.335999     -0.284146
O      9.45224      1.03696      9.45224        -0.014111      0.075169     -0.137894
O      1.03696      9.45224      9.45224         0.065870     -0.046161     -0.151216
O      1.03696      1.03696      1.03696         0.083198      0.123089      0.068210
O      9.45224      9.45224      1.03696        -0.071927     -0.064169      0.049672
Zr     10.48920      2.52580     10.48920        -0.046663     -0.200357      0.009285
Zr     10.48920     18.45260     10.48920        -0.026591      0.097427      0.198740
Zr     10.48920     10.48920      2.52580        -0.220555     -0.441484     -0.296801
Zr     10.48920     10.48920     18.45260         0.033974      0.028835      0.456891
Zr      2.52580     10.48920     10.48920        -0.235538      0.150627      0.079086
Zr     18.45260     10.48920     10.48920         0.179352     -0.010084     -0.038338
Pd     13.15681      8.57881      9.68303         0.011593      0.055132     -0.046919
Pd      6.04311      9.69343     10.15823        -0.005779     -0.001380      0.013843
Pd      6.93374     11.60022     11.74796         0.021689     -0.044287      0.037224
Pd     12.27766     13.11619      7.41697         0.000910      0.058405     -0.022250
Pd     12.11977      7.73290      7.00621         0.016542      0.013276      0.011404
Pd      8.46521      7.22203      6.88939        -0.051928     -0.006534     -0.026730
Pd     11.23163     11.40212      5.58999         0.006239     -0.039548     -0.017639
Pd     14.54250      8.70794      7.33766         0.016356     -0.039327     -0.051108
Pd      9.91149     11.76378      8.03420         0.053136     -0.004207      0.021894
Pd      6.97595      7.02498     12.09994         0.029132      0.052771      0.051489
Pd      6.35538      7.48686      8.41577        -0.003291      0.020061     -0.033824
Pd      7.19166      9.09723     13.68392        -0.021532     -0.054970     -0.026830
Pd     11.48315      6.43526      9.23425         0.056389      0.004281     -0.060798
Pd      9.94317      9.45480      6.69453         0.060177     -0.052465      0.025992
Pd      9.08720     13.98249      9.34791        -0.032605      0.001383      0.051427
Pd     10.80633      7.46904     11.46133        -0.072140     -0.028099      0.028864
Pd     10.51474      9.14621      9.35506         0.034612     -0.020077     -0.017267
Pd      9.48069     11.50616     10.64257        -0.016914     -0.066881      0.008978
Pd      8.89915      7.11081      9.54811        -0.013727     -0.071319     -0.042129
Pd      9.17044      7.41018     13.47010        -0.064034     -0.052722      0.023483
Pd      8.47662      9.16351     11.31581        -0.054194     -0.080847     -0.066705
Pd     12.30931     10.35962      7.80062        -0.093496      0.037386      0.046056
Pd      7.30284     11.99070      9.14935        -0.010038     -0.004172     -0.014271
Pd      8.06855      9.56977      8.50090         0.003423      0.003754      0.000683
Pd     14.05992      6.36165      8.47494        -0.021424     -0.038736      0.022826
Pd     13.08137      8.52450     12.31962        -0.051351     -0.039087     -0.029554
Pd      8.92953     11.45521     13.40948        -0.072064      0.023571      0.005451
Pd     13.87500     11.98702      9.15079        -0.050025     -0.038646     -0.047125
Pd     13.13203     11.13599     13.20814        -0.059640      0.006985      0.015929
Pd     14.72105     10.35266     11.06899         0.032400      0.039852      0.010353
Pd     12.06130     10.77835     10.74205         0.048355      0.008965     -0.045621
Pd     11.52131     13.29556      9.91491        -0.047925     -0.020169     -0.040389
Pd     13.61164     13.16635     11.64446         0.038979     -0.061608     -0.006506
Pd     11.11319     12.76968     12.47947         0.002600     -0.005547      0.000980
Pd     11.15864     11.55802     14.92757         0.003675     -0.050409     -0.013951
Pd     10.80010      9.74570     12.82590         0.039919     -0.000460     -0.022581
Pd      9.52048      9.47716     15.18209        -0.059272      0.049935      0.071514
Pd      8.68060     13.73338     12.00117         0.022254     -0.035406      0.034251
