20
# total energy = -167.56856737 eVC      8.01745      1.35959      7.50000         0.048617      0.058967     -0.000000
C      1.41122     -0.17073      7.50000        -0.012599      0.046962      0.000000
C      8.34800     -5.42649      7.50000         0.045649     -0.015920      0.000000
C      0.87298      1.14882      7.50000        -0.048617     -0.058967     -0.000000
C      7.47920      2.67914      7.50000         0.012599     -0.046962      0.000000
C      0.54242      7.93490      7.50000        -0.045649      0.015920     -0.000000
C      7.70167     -4.17860      7.50000         0.099877     -0.054709      0.000000
C      7.17170      0.24547      7.50000         0.054350      0.057745     -0.000000
C      2.78684     -0.45742      7.50000        -0.076905      0.078330      0.000000
C      1.18875      6.68701      7.50000        -0.099877      0.054709     -0.000000
C      1.71872      2.26294      7.50000        -0.054350     -0.057745     -0.000000
C      6.10359      2.96583      7.50000         0.076905     -0.078330      0.000000
N      6.76642     -3.45897      7.50000         0.011081      0.037350     -0.000000
N      6.46608     -0.69708      7.50000         0.010519      0.010761     -0.000000
N      3.73240     -1.16317      7.50000         0.032210      0.023015     -0.000000
N      2.12400      5.96738      7.50000        -0.011081     -0.037350      0.000000
N      2.42435      3.20549      7.50000        -0.010519     -0.010761     -0.000000
N      5.15802      3.67158      7.50000        -0.032210     -0.023015     -0.000000
Ir      5.26260     -2.29329      7.50000        -0.100159     -0.111741     -0.000000
Ir      3.62782      4.80170      7.50000         0.100159      0.111741     -0.000000
