10
# total energy = -65.09995360 eVH      2.09346      1.08424      7.50000         0.002648      0.001371      0.000000
H      3.43088      1.77692      7.50000        -0.002648     -0.001371     -0.000000
C      4.38741      2.27233      7.50000        -0.070624     -0.036577     -0.000000
C      1.13693      0.58884      7.50000         0.070624      0.036577      0.000000
N      0.06952      1.38257      7.50000        -0.000826      0.011037      0.000000
N      5.45482      1.47859      7.50000         0.000826     -0.011037     -0.000000
N      1.16933     -0.74095      7.50000         0.008538     -0.007044     -0.000000
N      4.35501      3.60211      7.50000        -0.008538      0.007044      0.000000
Pd      2.76217     -1.95131      7.50000         0.000000      0.000000      0.000000
Pd      0.00000      3.38190      7.50000         0.000000      0.000000      0.000000
