152
# total energy = -1092.62168578 eVH     10.35389      5.87395      7.64558         0.520420     -0.186263      1.345389
H     10.62451     15.10445      7.64558        -0.580174      0.378176      1.781824
H     10.62451      5.87395     13.33282         0.296505     -0.119102     -1.506940
H     10.35389     15.10445     13.33282        -0.513892      0.177044     -1.635403
H      7.64558     10.35389      5.87395         0.389860      0.000864     -0.027139
H      7.64558     10.62451     15.10445         0.421547     -0.030242      0.012796
H     13.33282     10.62451      5.87395        -0.578381     -0.016582      0.068110
H     13.33282     10.35389     15.10445        -0.446483      0.081267      0.018122
H      5.87395      7.64558     10.35389         0.054688      1.323186     -0.100930
H     15.10445      7.64558     10.62451        -0.009914      0.654283      0.014233
H      5.87395     13.33282     10.62451        -0.054173     -0.422739      0.018894
H     15.10445     13.33282     10.35389         0.335214     -1.706184      0.208365
H      5.87395     10.35389      7.64558        -0.273466     -0.413616      0.215238
H     15.10445     10.62451      7.64558         0.348941      0.460526     -0.034506
H      5.87395     10.62451     13.33282        -0.176080     -0.124677     -0.069555
H     15.10445     10.35389     13.33282         0.073462     -0.066067      0.097193
H     10.35389      7.64558      5.87395        -0.256114      0.356186     -0.006964
H     10.62451      7.64558     15.10445         0.109438      0.601917      0.248997
H     10.62451     13.33282      5.87395        -0.109786     -0.793594     -0.174891
H     10.35389     13.33282     15.10445        -0.188251     -0.571576      0.277393
H      7.64558      5.87395     10.35389         0.393091     -0.021830     -0.099328
H      7.64558     15.10445     10.62451         0.344740      0.042208     -0.122589
H     13.33282      5.87395     10.62451        -0.297804     -0.045507      0.021792
H     13.33282     15.10445     10.35389        -0.444160      0.209147     -0.068339
H     12.45634     12.45634     19.01126         0.261128      0.246779     -0.244033
H     19.01126     19.01126     19.01126        -0.257053     -0.246342     -0.249541
H     19.01126     12.45634     12.45634        -0.257503      0.265895      0.233979
H     12.45634     19.01126     12.45634         0.267345     -0.259590      0.228703
C     10.35284      5.61067      6.59456        -0.374174     -0.199752     -1.641291
C     10.62556     15.36773      6.59456         0.467287      0.123976     -1.939648
C     10.62556      5.61067     14.38384        -0.436513     -0.053233      1.680184
C     10.35284     15.36773     14.38384         0.457737      0.034974      1.876795
C      6.59456     10.35284      5.61067        -0.667074     -0.041635     -0.338526
C      6.59456     10.62556     15.36773        -0.823196     -0.028134      0.086959
C     14.38384     10.62556      5.61067         0.854440      0.007580     -0.123012
C     14.38384     10.35284     15.36773         0.766011      0.016884      0.194584
C      5.61067      6.59456     10.35284        -0.068375     -1.040442      0.027470
C     15.36773      6.59456     10.62556         0.161963     -1.023805      0.003306
C      5.61067     14.38384     10.62556        -0.242444      0.797689      0.016226
C     15.36773     14.38384     10.35284         0.043141      1.536625     -0.017233
C      5.61067     10.35284      6.59456        -0.757184      0.054483     -1.931765
C     15.36773     10.62556      6.59456         0.753793     -0.082924     -2.023416
C      5.61067     10.62556     14.38384        -0.747122      0.048573      1.886753
C     15.36773     10.35284     14.38384         0.608249     -0.078812      1.572706
C     10.35284      6.59456      5.61067         0.084797     -1.431919     -0.741144
C     10.62556      6.59456     15.36773        -0.065598     -1.641804      0.898909
C     10.62556     14.38384      5.61067         0.023052      1.710128     -0.970204
C     10.35284     14.38384     15.36773        -0.057068      1.763402      0.945062
C      6.59456      5.61067     10.35284        -0.512681     -0.875475     -0.125818
C      6.59456     15.36773     10.62556        -1.312227      0.738716      0.087636
C     14.38384      5.61067     10.62556         1.214427     -0.765697      0.042273
C     14.38384     15.36773     10.35284         0.521856      1.142445      0.030590
C     10.40319      3.19606      7.29314         0.016614      0.518808     -0.445816
C     10.35913      4.25547      6.23373         0.000031     -0.795498      0.456034
C      0.08601      7.29314      7.29314         0.021238     -0.496339     -0.510713
C      0.13007      6.23373      6.23373         0.006975      0.938556      0.516604
C      0.08601      3.19606      3.19606        -0.000915      0.595509      0.377150
C      0.13007      4.25547      4.25547        -0.035037     -0.901956     -0.448531
C     10.40319      7.29314      3.19606         0.042623     -0.535616      0.437513
C     10.35913      6.23373      4.25547         0.081268      0.685398     -0.487236
C      7.29314     10.40319      3.19606        -0.293968     -0.003300      0.556374
C      6.23373     10.35913      4.25547         0.191447     -0.057888     -0.241103
C      7.29314      0.08601      7.29314        -0.248875     -0.011923     -0.428140
C      6.23373      0.13007      6.23373         0.100187     -0.055865      0.416041
C      3.19606      0.08601      3.19606         0.329736      0.005497      0.487736
C      4.25547      0.13007      4.25547        -0.172854      0.054867     -0.313502
C      3.19606     10.40319      7.29314         0.274850      0.013605     -0.520488
C      4.25547     10.35913      6.23373        -0.195754      0.075787      0.508987
C      3.19606      7.29314     10.40319         0.218962     -0.392102     -0.004426
C      4.25547      6.23373     10.35913        -0.631009      0.270466      0.065181
C      7.29314      7.29314      0.08601        -0.557484     -0.303862      0.002626
C      6.23373      6.23373      0.13007         0.088412      0.281587     -0.034416
C      3.19606      3.19606      0.08601         0.504782      0.329883     -0.013290
C      4.25547      4.25547      0.13007        -0.052531     -0.154258     -0.028769
C      7.29314      3.19606     10.40319        -0.275594      0.489346     -0.015525
C      6.23373      4.25547     10.35913         0.802186     -0.359215      0.046297
O     10.43466      3.58206      8.50569        -0.000585      0.216183      0.425015
O     10.54374     17.39634      8.50569        -0.021794     -0.220551      0.460758
O     10.54374      3.58206     12.47271         0.074157      0.166255     -0.351791
O     10.43466     17.39634     12.47271        -0.120803     -0.201906     -0.357879
O      8.50569     10.43466      3.58206         0.410662     -0.030056      0.088727
O      8.50569     10.54374     17.39634         0.426124      0.055838     -0.120174
O     12.47271     10.54374      3.58206        -0.449220     -0.006036      0.116096
O     12.47271     10.43466     17.39634        -0.437908     -0.051464     -0.122658
O      3.58206      8.50569     10.43466         0.176221      0.452748     -0.051914
O     17.39634      8.50569     10.54374        -0.079408      0.469348      0.029926
O      3.58206     12.47271     10.54374         0.066020     -0.464524      0.045245
O     17.39634     12.47271     10.43466        -0.211982     -0.530685     -0.008495
O      3.58206     10.43466      8.50569         0.188626     -0.012169      0.495579
O     17.39634     10.54374      8.50569        -0.155287     -0.009416      0.467726
O      3.58206     10.54374     12.47271         0.221462      0.073978     -0.470313
O     17.39634     10.43466     12.47271        -0.199798     -0.027851     -0.548839
O     10.43466      8.50569      3.58206         0.034711      0.549064      0.259887
O     10.54374      8.50569     17.39634         0.060053      0.546848     -0.238697
O     10.54374     12.47271      3.58206        -0.004397     -0.636419      0.273994
O     10.43466     12.47271     17.39634        -0.037286     -0.544595     -0.244792
O      8.50569      3.58206     10.43466         0.542744      0.144721     -0.034674
O      8.50569     17.39634     10.54374         0.604505     -0.144376      0.055116
O     12.47271      3.58206     10.54374        -0.597893      0.160812     -0.001105
O     12.47271     17.39634     10.43466        -0.507239     -0.151036     -0.012694
O     11.90042     11.90042     19.56718        -0.301958     -0.290709      0.265339
O     19.56718     19.56718     19.56718         0.302997      0.282009      0.281432
O     19.56718     11.90042     11.90042         0.311729     -0.322092     -0.249958
O     11.90042     19.56718     11.90042        -0.316740      0.291349     -0.235062
O      9.45224      1.03696      9.45224        -0.046646      0.043521     -0.078085
O      1.03696      9.45224      9.45224         0.038935     -0.067174     -0.065327
O      1.03696      1.03696      1.03696         0.046477      0.040844      0.117199
O      9.45224      9.45224      1.03696        -0.039169     -0.076478      0.114931
Zr     10.48920      2.52580     10.48920        -0.126171     -0.098510      0.025656
Zr     10.48920     18.45260     10.48920         0.128060      0.167013     -0.099080
Zr     10.48920     10.48920      2.52580        -0.018367      0.083286     -0.290013
Zr     10.48920     10.48920     18.45260        -0.006699     -0.029950      0.169211
Zr      2.52580     10.48920     10.48920        -0.065537     -0.025394     -0.063704
Zr     18.45260     10.48920     10.48920         0.136285      0.083872     -0.088611
Pd     13.16071      8.24854      7.82948        -0.037323     -0.008491     -0.016998
Pd      9.28566     14.53106     11.78789         0.076157      0.129764      0.199645
Pd     12.28495     11.10424     10.49250        -0.029997     -0.100040      0.032517
Pd     14.61063     10.51185     11.67660         0.096643     -0.116104     -0.105713
Pd     11.03858      9.26840      6.34781         0.085339     -0.115546     -0.076240
Pd      6.78421      8.18116      8.54030        -0.015149     -0.000642      0.246739
Ir     10.14369     11.89269     11.80689         0.121271     -0.063711      0.116714
Ir     13.06878      8.50223     10.49954         0.155888      0.101747     -0.089338
Ir     12.27280     11.11312      7.82685        -0.033627     -0.109692      0.077713
Ir      9.42257     14.31057      9.13311         0.004514     -0.079905     -0.067484
Ir     10.87213      9.28980     11.78130         0.112262      0.141427      0.022298
Ir      8.71928      9.86487      7.85345         0.059819      0.182988      0.072963
Ir     13.73252     12.78029      9.10768         0.151310     -0.173773     -0.148188
Ir     11.78987     13.64799      7.83296        -0.060420     -0.018560     -0.034708
Ir     14.35511     10.22778      9.17006        -0.133780     -0.028468     -0.041525
Ir      9.42752      7.34870     10.57434        -0.191562      0.013121      0.077650
Ir      8.02581     12.50317      7.84194         0.049040     -0.014421      0.081154
Ir      9.26022      7.44993      8.07355         0.025685     -0.054553     -0.172252
Ir     11.63935     13.68558     13.08623         0.154254     -0.090078     -0.031120
Ir     11.63645      6.86466     11.90815         0.082771     -0.129060      0.147937
Ir     10.11719     11.75963      9.16245         0.090981     -0.030793     -0.166690
Ir     13.09233      8.53754     13.12950        -0.079353      0.042668     -0.023211
Ir     10.92549      9.15424      9.10052        -0.018383      0.227278     -0.082600
Ir     11.53098     13.73062     10.42073         0.108693     -0.139962      0.077966
Ir     13.63985     13.03314     11.85818         0.004016     -0.088853      0.043450
Ir     12.34863     11.18916     13.15646        -0.083126     -0.029942     -0.090122
Ir     10.08765     11.65249      6.57658        -0.073394     -0.067228     -0.001892
Ir     11.56793      6.67856      9.37695        -0.040626     -0.135346     -0.218168
Ir      7.27560      8.14040     11.85500         0.035904     -0.008791     -0.103437
Ir      8.03940     12.59726     10.46296        -0.218489     -0.248475     -0.013661
Ir     10.98340      9.32241     14.32292         0.016008     -0.069849      0.061482
Ir      7.95660     12.39917     13.04238         0.096367     -0.040913     -0.010899
Ir      6.61029     10.82722      9.20941         0.061321      0.051449      0.220698
Ir      8.70815      9.88208     13.13598        -0.057459      0.154096      0.084837
Ir      6.56840     10.65646     11.63516         0.080587      0.021026     -0.213568
Ir      9.18176      7.31795     13.17963         0.149540      0.062389     -0.068265
Ir     10.09368     11.64318     14.39187        -0.148484      0.131333     -0.000033
Ir      8.71942      9.88779     10.48265        -0.103610      0.140713     -0.072476
