152
# total energy = -1110.37998030 eVH     10.35389      5.87395      7.64558        -0.359864     -0.142465      1.076837
H     10.62451     15.10445      7.64558         0.356032      0.081832      0.936300
H     10.62451      5.87395     13.33282        -0.318868     -0.696984     -1.382995
H     10.35389     15.10445     13.33282        -0.612931      0.409966     -0.326441
H      7.64558     10.35389      5.87395         0.545558     -0.530004     -0.089988
H      7.64558     10.62451     15.10445         0.373321     -0.239927      0.043843
H     13.33282     10.62451      5.87395        -0.551775      0.630428     -0.033155
H     13.33282     10.35389     15.10445        -0.528667      0.406223      0.161131
H      5.87395      7.64558     10.35389         0.147347      0.531330      0.033258
H     15.10445      7.64558     10.62451         0.431812      0.950494      0.263913
H      5.87395     13.33282     10.62451        -0.224581     -0.478554      0.362365
H     15.10445     13.33282     10.35389         0.028904     -0.305037     -0.384356
H      5.87395     10.35389      7.64558        -0.083555     -0.375304      1.449510
H     15.10445     10.62451      7.64558         0.213397      0.466723      1.295975
H      5.87395     10.62451     13.33282        -0.186030     -0.356933     -1.174854
H     15.10445     10.35389     13.33282         0.577797      0.939672     -1.526951
H     10.35389      7.64558      5.87395        -0.553290      0.507381     -0.183226
H     10.62451      7.64558     15.10445        -0.139142      0.498603      0.180618
H     10.62451     13.33282      5.87395         0.885829     -1.371564     -0.321460
H     10.35389     13.33282     15.10445         0.255521     -0.557838     -0.090849
H      7.64558      5.87395     10.35389         0.716622      0.171473     -0.155588
H      7.64558     15.10445     10.62451         1.979316      0.779269      0.209492
H     13.33282      5.87395     10.62451        -2.689113     -0.956850     -0.470761
H     13.33282     15.10445     10.35389        -0.876315     -0.049805     -0.251525
H     12.45634     12.45634     19.01126         0.272059      0.257592     -0.227418
H     19.01126     19.01126     19.01126        -0.266696     -0.255196     -0.238514
H     19.01126     12.45634     12.45634        -0.283016      0.280939      0.186218
H     12.45634     19.01126     12.45634         0.256150     -0.251506      0.235794
C     10.35284      5.61067      6.59456         0.083752     -0.501941     -1.232486
C     10.62556     15.36773      6.59456         0.174726      0.759402     -0.823285
C     10.62556      5.61067     14.38384         0.182514     -0.311857      1.804877
C     10.35284     15.36773     14.38384         0.103023      0.387540      1.804219
C      6.59456     10.35284      5.61067        -1.129327     -0.110825     -0.865660
C      6.59456     10.62556     15.36773        -0.694075     -0.101738      0.764802
C     14.38384     10.62556      5.61067         0.864520     -0.112101     -1.000753
C     14.38384     10.35284     15.36773         1.199945      0.166713      1.106399
C      5.61067      6.59456     10.35284        -0.674769     -0.859910     -0.177871
C     15.36773      6.59456     10.62556         1.972996     -0.254257     -0.184038
C      5.61067     14.38384     10.62556        -1.573702     -0.008884     -0.129154
C     15.36773     14.38384     10.35284         0.485946      0.070865      0.014791
C      5.61067     10.35284      6.59456        -0.274059      0.200453     -1.346949
C     15.36773     10.62556      6.59456         0.284663     -0.232901     -0.997034
C      5.61067     10.62556     14.38384        -0.262250      0.418227      1.444496
C     15.36773     10.35284     14.38384         0.046685     -0.450046      1.930775
C     10.35284      6.59456      5.61067        -0.181505     -0.887177     -0.688260
C     10.62556      6.59456     15.36773        -0.109508     -0.764759      1.052528
C     10.62556     14.38384      5.61067        -0.497194      2.015656     -0.773562
C     10.35284     14.38384     15.36773        -0.277816      1.418967      0.487462
C      6.59456      5.61067     10.35284        -0.969577     -0.412837      0.084947
C      6.59456     15.36773     10.62556        -1.298880      0.367670     -0.331470
C     14.38384      5.61067     10.62556         1.289725     -1.247876      0.179306
C     14.38384     15.36773     10.35284         0.437041      0.314201      0.071016
C     10.40319      3.19606      7.29314         0.002056      0.308375     -0.103213
C     10.35913      4.25547      6.23373         0.139953     -0.537571      0.017813
C      0.08601      7.29314      7.29314        -0.053178     -0.297821     -0.425641
C      0.13007      6.23373      6.23373        -0.122834      0.701417      0.030382
C      0.08601      3.19606      3.19606        -0.107353      1.636061      0.171035
C      0.13007      4.25547      4.25547        -0.087707     -0.402597     -1.231242
C     10.40319      7.29314      3.19606         0.016338     -0.432826      0.125023
C     10.35913      6.23373      4.25547         0.261631      0.081978     -0.509363
C      7.29314     10.40319      3.19606        -1.672444      0.007114      0.325316
C      6.23373     10.35913      4.25547         0.657813      0.077542     -0.612451
C      7.29314      0.08601      7.29314        -0.405091     -0.012613     -0.306707
C      6.23373      0.13007      6.23373         0.678569     -0.055625      0.262548
C      3.19606      0.08601      3.19606         0.658080     -0.016926      0.184983
C      4.25547      0.13007      4.25547        -0.370330     -0.074788     -0.529097
C      3.19606     10.40319      7.29314         0.368124      0.019273     -0.316861
C      4.25547     10.35913      6.23373        -0.728505      0.067071      0.366681
C      3.19606      7.29314     10.40319         0.294882     -0.211278     -0.006656
C      4.25547      6.23373     10.35913         0.047313      0.643478      0.091899
C      7.29314      7.29314      0.08601        -0.718709     -0.606465     -0.020821
C      6.23373      6.23373      0.13007         0.868697      1.130308     -0.072836
C      3.19606      3.19606      0.08601         0.815660      0.502702      0.008327
C      4.25547      4.25547      0.13007        -0.326394     -1.744040     -0.127141
C      7.29314      3.19606     10.40319        -0.329541      0.275007     -0.003889
C      6.23373      4.25547     10.35913         0.510342     -0.028550      0.229790
O     10.43466      3.58206      8.50569        -0.048059      0.182772      0.257943
O     10.54374     17.39634      8.50569         0.042107     -0.233368      0.484922
O     10.54374      3.58206     12.47271         0.084253     -0.064667     -0.035460
O     10.43466     17.39634     12.47271        -0.022998     -0.141453     -0.275536
O      8.50569     10.43466      3.58206         0.985913      0.184674      0.384874
O      8.50569     10.54374     17.39634         0.572809      0.084100     -0.228661
O     12.47271     10.54374      3.58206        -0.422819     -0.039253      0.186337
O     12.47271     10.43466     17.39634        -0.516559     -0.069928     -0.196854
O      3.58206      8.50569     10.43466         0.182189      0.431396     -0.030202
O     17.39634      8.50569     10.54374        -0.230052      0.714371      0.044016
O      3.58206     12.47271     10.54374         0.160848     -0.675182      0.024882
O     17.39634     12.47271     10.43466        -0.185527     -0.480020     -0.012145
O      3.58206     10.43466      8.50569         0.224241     -0.060196      0.401475
O     17.39634     10.54374      8.50569        -0.170596      0.036727      0.410428
O      3.58206     10.54374     12.47271         0.146643      0.020822     -0.305939
O     17.39634     10.43466     12.47271         0.072435     -0.050466     -0.082055
O     10.43466      8.50569      3.58206         0.000916      0.275312      0.181305
O     10.54374      8.50569     17.39634         0.070766      0.435478     -0.179623
O     10.54374     12.47271      3.58206        -0.222101     -0.969814      0.342212
O     10.43466     12.47271     17.39634        -0.083815     -0.449823     -0.245118
O      8.50569      3.58206     10.43466         0.494376      0.196020     -0.012109
O      8.50569     17.39634     10.54374         0.663110     -0.198664      0.021867
O     12.47271      3.58206     10.54374        -0.741433      0.278254      0.036439
O     12.47271     17.39634     10.43466        -0.437854     -0.203128     -0.044309
O     11.90042     11.90042     19.56718        -0.346120     -0.307816      0.259147
O     19.56718     19.56718     19.56718         0.325298      0.311302      0.282374
O     19.56718     11.90042     11.90042         0.276827     -0.276706     -0.140528
O     11.90042     19.56718     11.90042        -0.306042      0.285719     -0.234078
O      9.45224      1.03696      9.45224        -0.058826      0.071563     -0.047566
O      1.03696      9.45224      9.45224         0.035763     -0.074009     -0.072269
O      1.03696      1.03696      1.03696         0.059422      0.142244      0.100920
O      9.45224      9.45224      1.03696        -0.135765     -0.092513      0.100963
Zr     10.48920      2.52580     10.48920         0.154175     -0.167916     -0.163339
Zr     10.48920     18.45260     10.48920        -0.097564      0.181506     -0.045821
Zr     10.48920     10.48920      2.52580         0.333477     -0.309715     -0.199276
Zr     10.48920     10.48920     18.45260         0.007549     -0.086887      0.205461
Zr      2.52580     10.48920     10.48920        -0.067577      0.171316     -0.051634
Zr     18.45260     10.48920     10.48920         0.141011     -0.127662     -0.249412
Ir     12.04906     12.48571     10.46037        -0.005381      0.001185     -0.000088
Ir     11.18981      7.41645     10.29178         0.016517      0.001747     -0.010544
Ir      8.83460      7.37070     11.56079         0.010144     -0.008537     -0.011837
Ir      7.47955     11.65512      7.65909        -0.003561     -0.001094      0.000249
Ir     11.59435     12.08627      7.12163         0.001640     -0.000144     -0.000224
Ir     13.76238      8.98737      7.54770         0.005611     -0.003196     -0.000654
Ir     12.48677     13.95474      8.41718        -0.007153     -0.007448     -0.003317
Ir      9.72658     11.26159      5.55929         0.005974     -0.002884     -0.006385
Ir      9.08069     13.46249      7.07651        -0.004000     -0.008453      0.003172
Ir      9.27989      9.66546      7.52220        -0.000532      0.001964     -0.012670
Ir     13.27626      7.03940     11.95449        -0.005028      0.010645      0.007861
Ir     13.59119      7.03491      9.11641         0.014383      0.010542     -0.008345
Ir     11.03546      7.60007     12.83909         0.011449     -0.004203     -0.019688
Ir     13.60837     11.56237      8.75500         0.000869      0.004486     -0.001603
Ir     11.50463      9.64512      6.23283        -0.001661     -0.006282     -0.004795
Ir      7.15316      9.17265      8.93700        -0.005033     -0.010770     -0.011155
Ir     14.06092     11.43051     11.65830        -0.002260      0.005601     -0.001955
Ir     11.65576      9.85421      8.88727         0.000829     -0.015736     -0.010936
Ir      9.43418      9.51576     10.24366         0.016152     -0.007647     -0.007668
Ir     13.86678      9.40373     10.18342         0.009137      0.000336     -0.006133
Ir     13.81748      9.15857     12.90304         0.004138     -0.003467     -0.011294
Ir     11.69147      9.76331     11.56236         0.005538     -0.004911     -0.006361
Ir      9.91213     11.74556      8.97337         0.005547     -0.001984     -0.004900
Ir      9.07037      7.43471      8.81821         0.017352      0.001662     -0.015603
Ir     11.56595      7.56474      7.76634         0.031946     -0.016165     -0.017892
Ir      9.25161      9.48792     13.01640         0.007710     -0.011219     -0.002695
Ir      7.51804     13.91215      8.99403         0.000780     -0.006935     -0.001445
Ir     10.88643     14.11378     11.94988        -0.009529     -0.006181     -0.002163
Ir     10.11867     14.16210      9.52121        -0.001612     -0.012096     -0.002417
Ir      9.79521     11.69507     11.72794         0.005193     -0.006319     -0.003214
Ir      7.58901     11.58161     10.21243        -0.000539     -0.004075     -0.007642
Ir      8.35881     13.75382     11.58579        -0.003008     -0.005552     -0.001049
Ir      7.52705     11.57402     12.82875        -0.005375     -0.009229      0.005265
Ir      9.77069     11.61891     14.34463         0.003012     -0.005436      0.005758
Ir     13.48362     13.88169     12.19092        -0.004309     -0.000599     -0.000920
Ir     11.99376     12.05330     13.08453         0.000635     -0.008292     -0.004716
Ir     11.57571      9.80458     14.20237         0.004473     -0.005947     -0.014206
Ir      7.14913      9.37662     11.49690        -0.006538     -0.013526     -0.001578
