8
# total energy = -53.46361053 eVC      1.14292     13.14935      0.00000        -0.000000      0.064339      0.000000
C      1.14292      4.13685     -0.00000        -0.000000     -0.064339      0.000000
O      1.14292      5.32274      0.00000        -0.000000      0.392920     -0.000000
O      1.14292     11.96346     -0.00000        -0.000000     -0.392920      0.000000
O     -0.00000     13.91734      0.00000        -0.000000      0.270439      0.000000
O      0.00000      3.36886     -0.00000         0.000000     -0.270439     -0.000000
Ir     -0.00000      8.64310      0.00000        -0.000000      0.000000      0.000000
Ir     -0.00000      0.00000      0.00000        -0.000000      0.000000      0.000000
