152
# total energy = -1005.98476420 eVH     10.35389      5.87395      7.64558         0.258151      0.037389      0.638654
H     10.62451     15.10445      7.64558        -0.109039     -0.142599      0.525732
H     10.62451      5.87395     13.33282         0.486527      0.120532     -0.584438
H     10.35389     15.10445     13.33282         0.071692     -0.184686     -0.546817
H      7.64558     10.35389      5.87395         0.370558      0.051073      0.171888
H      7.64558     10.62451     15.10445         0.691040      0.471299     -0.041990
H     13.33282     10.62451      5.87395        -0.532038      0.418692      0.075888
H     13.33282     10.35389     15.10445        -0.800420     -0.095465      0.005252
H      5.87395      7.64558     10.35389         0.248421      0.764537     -0.316559
H     15.10445      7.64558     10.62451        -0.094808      0.484763      0.285447
H      5.87395     13.33282     10.62451         0.157610     -0.698470     -0.160625
H     15.10445     13.33282     10.35389        -0.005161     -1.042073     -0.329919
H      5.87395     10.35389      7.64558         0.254695      0.177784      0.633954
H     15.10445     10.62451      7.64558        -0.110979      0.407237      0.766477
H      5.87395     10.62451     13.33282         0.140101      0.333834     -0.696314
H     15.10445     10.35389     13.33282        -0.043159     -0.075900     -0.699856
H     10.35389      7.64558      5.87395         0.373534      1.045670     -0.009010
H     10.62451      7.64558     15.10445         0.536298      0.536092     -0.118614
H     10.62451     13.33282      5.87395        -0.397007     -0.837668      0.188144
H     10.35389     13.33282     15.10445        -0.043461     -0.433376     -0.217128
H      7.64558      5.87395     10.35389         0.853416      0.089735     -0.291021
H      7.64558     15.10445     10.62451         0.830303     -0.200257      0.002513
H     13.33282      5.87395     10.62451        -0.797411      0.190727      0.590599
H     13.33282     15.10445     10.35389        -0.444782     -0.107787     -0.135813
H     12.45634     12.45634     19.01126         0.235421      0.270898     -0.239551
H     19.01126     19.01126     19.01126        -0.262299     -0.240671     -0.261333
H     19.01126     12.45634     12.45634        -0.266782      0.268536      0.219554
H     12.45634     19.01126     12.45634         0.232383     -0.256514      0.277063
C     10.35284      5.61067      6.59456        -0.431760     -0.695655      0.159639
C     10.62556     15.36773      6.59456         0.065227      0.364169     -0.306280
C     10.62556      5.61067     14.38384        -0.330441     -0.372643     -0.297777
C     10.35284     15.36773     14.38384        -0.006998      0.341567      0.535629
C      6.59456     10.35284      5.61067        -0.273475     -0.005926     -0.341808
C      6.59456     10.62556     15.36773        -0.254782     -0.217216      0.801029
C     14.38384     10.62556      5.61067        -0.249275     -0.397131     -0.522850
C     14.38384     10.35284     15.36773         0.972846     -0.062282      0.254892
C      5.61067      6.59456     10.35284        -0.537085     -0.005755      0.077083
C     15.36773      6.59456     10.62556         0.532393      0.017756     -0.249926
C      5.61067     14.38384     10.62556        -0.327088      0.977319      0.079667
C     15.36773     14.38384     10.35284         0.306590      1.045450      0.049646
C      5.61067     10.35284      6.59456        -0.188134     -0.233582     -0.608346
C     15.36773     10.62556      6.59456         0.445824     -0.279212      0.114630
C      5.61067     10.62556     14.38384        -0.705782     -0.345468     -0.076913
C     15.36773     10.35284     14.38384         0.383275     -0.064086      1.024400
C     10.35284      6.59456      5.61067        -0.216090     -0.262539     -0.656147
C     10.62556      6.59456     15.36773        -0.266801      0.131163      0.451229
C     10.62556     14.38384      5.61067         0.196916      1.062087     -0.347577
C     10.35284     14.38384     15.36773         0.018148      0.544062      0.443176
C      6.59456      5.61067     10.35284        -0.153450     -0.716219      0.248322
C      6.59456     15.36773     10.62556        -1.008404      0.289510      0.079866
C     14.38384      5.61067     10.62556         0.496252     -0.553401     -0.366160
C     14.38384     15.36773     10.35284         0.217142      0.461008     -0.100807
C     10.40319      3.19606      7.29314         0.012420      0.681544     -0.479134
C     10.35913      4.25547      6.23373         0.086881     -0.723117     -0.021910
C      0.08601      7.29314      7.29314        -0.044286     -0.407721     -0.312474
C      0.13007      6.23373      6.23373        -0.022976      0.086058      0.572606
C      0.08601      3.19606      3.19606        -0.013718      1.265250      0.283338
C      0.13007      4.25547      4.25547         0.050131     -0.778100     -0.155048
C     10.40319      7.29314      3.19606         0.011265     -0.328184      0.333800
C     10.35913      6.23373      4.25547         0.026064      0.006154     -0.850333
C      7.29314     10.40319      3.19606        -0.326454      0.022361      0.565383
C      6.23373     10.35913      4.25547         0.202630      0.064058     -0.092827
C      7.29314      0.08601      7.29314        -0.518499     -0.064927     -0.375941
C      6.23373      0.13007      6.23373         0.679270     -0.052837      0.480675
C      3.19606      0.08601      3.19606         0.713014     -0.035000      0.568750
C      4.25547      0.13007      4.25547        -0.580238     -0.085481     -0.546540
C      3.19606     10.40319      7.29314         0.480456     -0.014356     -0.769631
C      4.25547     10.35913      6.23373        -0.416029      0.049760      0.199138
C      3.19606      7.29314     10.40319         0.293296     -1.274399      0.044339
C      4.25547      6.23373     10.35913        -0.759618      0.108111      0.153069
C      7.29314      7.29314      0.08601        -0.407583     -0.373635     -0.027288
C      6.23373      6.23373      0.13007         0.467696      0.214169     -0.017964
C      3.19606      3.19606      0.08601         0.490995      0.374949     -0.040537
C      4.25547      4.25547      0.13007        -0.156592     -0.648128     -0.034804
C      7.29314      3.19606     10.40319        -0.324772      0.434872      0.076747
C      6.23373      4.25547     10.35913         0.279430     -0.685221      0.144007
O     10.43466      3.58206      8.50569        -0.017865      0.104651      0.502121
O     10.54374     17.39634      8.50569         0.036629     -0.175278      0.485657
O     10.54374      3.58206     12.47271         0.054848     -0.087251     -0.185281
O     10.43466     17.39634     12.47271        -0.038811     -0.183184     -0.549073
O      8.50569     10.43466      3.58206         0.310598     -0.002942      0.027590
O      8.50569     10.54374     17.39634         0.628699      0.034431     -0.144142
O     12.47271     10.54374      3.58206        -0.702198      0.084573      0.094413
O     12.47271     10.43466     17.39634        -0.437755      0.025120     -0.109606
O      3.58206      8.50569     10.43466         0.178752      1.040434     -0.041609
O     17.39634      8.50569     10.54374        -0.160523      0.539870      0.076432
O      3.58206     12.47271     10.54374         0.085283     -0.368029      0.049187
O     17.39634     12.47271     10.43466        -0.156789     -0.546659     -0.022706
O      3.58206     10.43466      8.50569         0.077715     -0.066196      0.590945
O     17.39634     10.54374      8.50569        -0.110670      0.066297      0.524524
O      3.58206     10.54374     12.47271         0.044607      0.048651     -0.522939
O     17.39634     10.43466     12.47271        -0.222495     -0.038573     -0.603209
O     10.43466      8.50569      3.58206        -0.040006      0.457750      0.136085
O     10.54374      8.50569     17.39634         0.050304      0.530772     -0.159601
O     10.54374     12.47271      3.58206         0.002146     -1.017117      0.204683
O     10.43466     12.47271     17.39634         0.041844     -0.727060     -0.175184
O      8.50569      3.58206     10.43466         0.508445      0.146184     -0.055201
O      8.50569     17.39634     10.54374         0.487344     -0.196759      0.014812
O     12.47271      3.58206     10.54374        -0.633638      0.230973      0.010502
O     12.47271     17.39634     10.43466        -0.220158      0.068316     -0.055640
O     11.90042     11.90042     19.56718        -0.239419     -0.289874      0.247297
O     19.56718     19.56718     19.56718         0.310896      0.295364      0.301241
O     19.56718     11.90042     11.90042         0.291167     -0.264633     -0.233083
O     11.90042     19.56718     11.90042        -0.241752      0.290719     -0.331180
O      9.45224      1.03696      9.45224        -0.019352      0.087865     -0.073008
O      1.03696      9.45224      9.45224         0.091526     -0.092317     -0.137385
O      1.03696      1.03696      1.03696         0.090053      0.189423      0.050157
O      9.45224      9.45224      1.03696        -0.109144     -0.103138      0.033908
Zr     10.48920      2.52580     10.48920        -0.128319     -0.287751     -0.037216
Zr     10.48920     18.45260     10.48920        -0.075443      0.215329      0.083407
Zr     10.48920     10.48920      2.52580         0.034657     -0.403537     -0.255758
Zr     10.48920     10.48920     18.45260        -0.278094     -0.091455      0.322676
Zr      2.52580     10.48920     10.48920        -0.379202      0.240756      0.292367
Zr     18.45260     10.48920     10.48920         0.236962     -0.003783     -0.225194
Pd     13.60911      8.97688      9.22151        -0.002112      0.006369     -0.002926
Pd      5.62844      9.87291     10.14033         0.002844     -0.002769     -0.003585
Pd      6.77657     11.85558     11.71018        -0.000807     -0.002735      0.000742
Pd     12.06037     13.00581      7.37014         0.001110     -0.002987     -0.003183
Pd     11.87967      7.73913      7.46380        -0.001779      0.001013     -0.001515
Pd      8.31382      6.84844      6.57022        -0.001097     -0.002425     -0.010006
Pd     10.62225     11.17175      5.64856        -0.014734     -0.000270     -0.000548
Pd     14.39767      8.55021      6.74206         0.001025     -0.000487     -0.004464
Pd      9.67317     11.72803      8.12846        -0.002795      0.003030      0.004622
Pd      6.75319      6.79529     12.32649        -0.006937     -0.001289      0.003891
Pd      6.55358      8.11515      8.01400         0.020438      0.045670     -0.033261
Pd      6.53118      8.49761     14.36474        -0.001997     -0.001718      0.006566
Pd     11.49525      6.52391      9.94639        -0.003445     -0.002057      0.000623
Pd      9.49959      9.20018      7.15343        -0.010789     -0.002131      0.003440
Pd      8.97969     13.98598      9.33278         0.000105      0.001672      0.008446
Pd      9.46213      7.37147     11.72032        -0.006873     -0.000869     -0.005858
Pd     10.62057      8.97964      9.68523         0.005273     -0.007089     -0.000082
Pd      9.33949     11.54245     10.71461         0.002628      0.012175      0.010126
Pd      8.89206      7.05774      9.13954        -0.009075      0.007057     -0.008313
Pd      8.55333      6.57871     14.24422        -0.000003      0.001069     -0.003310
Pd      7.64401      9.33106     11.99837        -0.006956     -0.002506      0.006484
Pd     11.96390     10.37932      7.72551        -0.002498     -0.001386      0.000105
Pd      7.13062     12.01330      9.06530        -0.002476      0.002516      0.000560
Pd      8.13245      9.61246      9.40870        -0.007593     -0.004227      0.010472
Pd     14.01924      6.49379      8.51989        -0.002994      0.002190      0.001423
Pd     12.62385      8.39953     11.58042         0.000076      0.004156     -0.004918
Pd      8.76883     11.57584     13.40702        -0.006341      0.002668     -0.001423
Pd     13.88693     11.93325      8.96513        -0.005251     -0.006893      0.001539
Pd     12.95197     10.70210     13.06673        -0.003894      0.000130      0.003656
Pd     14.78629     10.44657     11.10685        -0.006868     -0.004833      0.003806
Pd     12.07236     10.89981     10.53126        -0.003581      0.000402      0.001507
Pd     11.44122     13.35123      9.93528         0.001058     -0.002651     -0.001586
Pd     13.60086     12.92413     11.62800        -0.002449     -0.002584     -0.000160
Pd     11.12129     12.61414     12.54029        -0.002231      0.004278     -0.001893
Pd     10.95319     11.06008     14.81534        -0.001376      0.002411      0.004133
Pd     10.51423      9.73608     12.38239         0.000816     -0.005296     -0.005323
Pd      9.08542      9.14238     14.42135        -0.003589     -0.003887      0.006898
Pd      8.82173     13.85448     12.02859        -0.006306     -0.000143      0.008108
