152
# total energy = -1004.14585890 eVH     10.35389      5.87395      7.64558        -0.278742      0.269260      0.566310
H     10.62451     15.10445      7.64558        -0.258595     -0.142024      0.710697
H     10.62451      5.87395     13.33282         0.460010      0.050530     -0.943705
H     10.35389     15.10445     13.33282         0.074827     -0.195784     -0.521864
H      7.64558     10.35389      5.87395         0.448912      0.072482      0.099101
H      7.64558     10.62451     15.10445         0.816734      0.625698     -0.019340
H     13.33282     10.62451      5.87395        -0.446273     -0.091845      0.302218
H     13.33282     10.35389     15.10445        -0.668733     -0.147893     -0.048615
H      5.87395      7.64558     10.35389         0.096734      1.793955      0.220045
H     15.10445      7.64558     10.62451        -0.095658      0.490542      0.117497
H      5.87395     13.33282     10.62451         0.210635     -0.755713      0.068165
H     15.10445     13.33282     10.35389         0.240339     -1.439516     -0.346082
H      5.87395     10.35389      7.64558         0.073931      0.077218      0.619998
H     15.10445     10.62451      7.64558        -0.237426      0.761426      1.314820
H      5.87395     10.62451     13.33282        -0.051071      0.465564     -1.318546
H     15.10445     10.35389     13.33282         0.139899     -0.120258     -0.771605
H     10.35389      7.64558      5.87395         0.231181      1.343025      0.209185
H     10.62451      7.64558     15.10445         0.580035      0.864550     -0.081341
H     10.62451     13.33282      5.87395        -0.575490     -0.792678      0.190254
H     10.35389     13.33282     15.10445        -0.118899     -0.526751     -0.289640
H      7.64558      5.87395     10.35389         1.119973     -0.327579     -0.156789
H      7.64558     15.10445     10.62451         0.690234     -0.214151     -0.013172
H     13.33282      5.87395     10.62451        -0.625319      0.114351      0.598587
H     13.33282     15.10445     10.35389        -0.359809     -0.043861     -0.116650
H     12.45634     12.45634     19.01126         0.272086      0.244314     -0.233428
H     19.01126     19.01126     19.01126        -0.267022     -0.274994     -0.212687
H     19.01126     12.45634     12.45634        -0.272032      0.255911      0.232673
H     12.45634     19.01126     12.45634         0.258193     -0.280288      0.227014
C     10.35284      5.61067      6.59456        -0.118995     -0.813407     -0.671956
C     10.62556     15.36773      6.59456         0.101862      0.361282     -0.271297
C     10.62556      5.61067     14.38384        -0.080087     -0.635191      0.610751
C     10.35284     15.36773     14.38384        -0.017912      0.222551      0.527120
C      6.59456     10.35284      5.61067        -0.734244      0.095276     -0.522392
C      6.59456     10.62556     15.36773        -0.999610      0.208857      0.750928
C     14.38384     10.62556      5.61067         0.909875      0.020444     -0.986901
C     14.38384     10.35284     15.36773         0.944609     -0.076238      0.497311
C      5.61067      6.59456     10.35284        -0.817849     -0.951846     -0.460578
C     15.36773      6.59456     10.62556         0.742170      0.010043     -0.199405
C      5.61067     14.38384     10.62556        -0.197443      0.911829     -0.026475
C     15.36773     14.38384     10.35284         0.307270      1.488012     -0.061933
C      5.61067     10.35284      6.59456        -0.318869      0.000892     -0.773226
C     15.36773     10.62556      6.59456         0.404145     -0.411368     -0.848902
C      5.61067     10.62556     14.38384        -0.380078     -0.009192      1.050888
C     15.36773     10.35284     14.38384         0.278020     -0.031353      0.912103
C     10.35284      6.59456      5.61067        -0.035429     -1.038097     -0.292472
C     10.62556      6.59456     15.36773         0.013861     -0.746288      0.591778
C     10.62556     14.38384      5.61067         0.099295      0.945331     -0.446782
C     10.35284     14.38384     15.36773        -0.024762      0.746103      0.356083
C      6.59456      5.61067     10.35284        -0.733247     -1.165373      0.175459
C      6.59456     15.36773     10.62556        -0.745651      0.117168      0.072821
C     14.38384      5.61067     10.62556        -0.051088     -0.479271     -0.411686
C     14.38384     15.36773     10.35284         0.071781      0.622421     -0.073599
C     10.40319      3.19606      7.29314         0.008240      0.601594     -0.812266
C     10.35913      4.25547      6.23373         0.006939     -0.467472      0.126073
C      0.08601      7.29314      7.29314        -0.030560     -1.067373     -0.272028
C      0.13007      6.23373      6.23373        -0.045298      0.400004      0.469274
C      0.08601      3.19606      3.19606         0.038067      1.172001      0.221193
C      0.13007      4.25547      4.25547         0.004260     -0.431306     -0.421221
C     10.40319      7.29314      3.19606        -0.013201     -0.644104      0.199256
C     10.35913      6.23373      4.25547        -0.035675      0.120867     -0.668672
C      7.29314     10.40319      3.19606        -0.452083      0.015220      0.234188
C      6.23373     10.35913      4.25547         0.201422      0.052967     -0.107676
C      7.29314      0.08601      7.29314        -1.253364     -0.078373     -0.404253
C      6.23373      0.13007      6.23373         0.680867     -0.196285      0.374402
C      3.19606      0.08601      3.19606         1.219216     -0.013016      0.266477
C      4.25547      0.13007      4.25547        -0.603138     -0.134409     -0.207422
C      3.19606     10.40319      7.29314         0.545480      0.031526     -0.258262
C      4.25547     10.35913      6.23373        -0.206537      0.063295      0.181508
C      3.19606      7.29314     10.40319         0.284821     -0.540932      0.051146
C      4.25547      6.23373     10.35913        -0.968877     -0.006471      0.157424
C      7.29314      7.29314      0.08601        -0.470650     -0.435763     -0.019419
C      6.23373      6.23373      0.13007         0.425552      0.303295      0.064743
C      3.19606      3.19606      0.08601         0.629647      0.461455     -0.020414
C      4.25547      4.25547      0.13007        -0.147779     -0.791196     -0.107965
C      7.29314      3.19606     10.40319        -0.371115      0.452788      0.053386
C      6.23373      4.25547     10.35913         0.607693     -0.681363      0.196005
O     10.43466      3.58206      8.50569         0.056628      0.223278      0.704502
O     10.54374     17.39634      8.50569         0.052480     -0.023017      0.310492
O     10.54374      3.58206     12.47271         0.003735     -0.045865     -0.240443
O     10.43466     17.39634     12.47271        -0.033560     -0.088786     -0.359193
O      8.50569     10.43466      3.58206         0.588928     -0.049871      0.150973
O      8.50569     10.54374     17.39634         0.878410     -0.079352     -0.134872
O     12.47271     10.54374      3.58206        -0.886073      0.147061      0.130330
O     12.47271     10.43466     17.39634        -0.602322      0.041350     -0.183599
O      3.58206      8.50569     10.43466         0.178173      0.643676     -0.038645
O     17.39634      8.50569     10.54374        -0.139784      0.626087      0.020291
O      3.58206     12.47271     10.54374         0.110336     -0.561802      0.045469
O     17.39634     12.47271     10.43466        -0.178203     -0.564156     -0.056749
O      3.58206     10.43466      8.50569         0.092467     -0.041121      0.383884
O     17.39634     10.54374      8.50569         0.065398      0.103509      0.337317
O      3.58206     10.54374     12.47271        -0.029302      0.025590     -0.228287
O     17.39634     10.43466     12.47271        -0.105652     -0.028874     -0.398488
O     10.43466      8.50569      3.58206        -0.048982      0.664966      0.188320
O     10.54374      8.50569     17.39634        -0.086740      0.817883     -0.143141
O     10.54374     12.47271      3.58206         0.125080     -0.943638      0.175916
O     10.43466     12.47271     17.39634         0.013770     -0.451907     -0.052473
O      8.50569      3.58206     10.43466         0.559920      0.147344     -0.050980
O      8.50569     17.39634     10.54374         0.590629     -0.162727      0.016465
O     12.47271      3.58206     10.54374        -0.734915      0.121257      0.019657
O     12.47271     17.39634     10.43466        -0.506692     -0.129743     -0.029122
O     11.90042     11.90042     19.56718        -0.323387     -0.266579      0.243740
O     19.56718     19.56718     19.56718         0.295752      0.324992      0.206148
O     19.56718     11.90042     11.90042         0.343605     -0.286096     -0.246374
O     11.90042     19.56718     11.90042        -0.286252      0.348129     -0.218634
O      9.45224      1.03696      9.45224        -0.041307      0.105022     -0.122077
O      1.03696      9.45224      9.45224         0.068459     -0.031662     -0.107540
O      1.03696      1.03696      1.03696         0.059891      0.088672      0.107655
O      9.45224      9.45224      1.03696        -0.035494     -0.026866      0.099885
Zr     10.48920      2.52580     10.48920        -0.089431     -0.234024      0.183381
Zr     10.48920     18.45260     10.48920         0.024525      0.058044      0.068236
Zr     10.48920     10.48920      2.52580        -0.295836     -0.207300     -0.412513
Zr     10.48920     10.48920     18.45260         0.189840      0.008160      0.341380
Zr      2.52580     10.48920     10.48920        -0.127890     -0.048361     -0.060926
Zr     18.45260     10.48920     10.48920         0.103277     -0.043106      0.130074
Pd     12.67510      8.21002      9.69445        -0.022877      0.013824      0.000365
Pd      6.79719      9.62904     10.50503        -0.051693      0.002419     -0.021192
Pd      6.95514     11.80246     11.94928        -0.029949     -0.000775     -0.020643
Pd     12.24987     13.50019      7.30290         0.004010     -0.017444     -0.025341
Pd     12.12760      7.92837      7.05692        -0.017282     -0.038123     -0.041606
Pd      8.51483      7.41914      6.96274         0.043534     -0.075893      0.005568
Pd     11.55504     11.48215      5.67003         0.024589     -0.021957     -0.023019
Pd     14.55148      8.80244      7.81708        -0.090865      0.044772     -0.007826
Pd      9.93491     11.76971      7.84001        -0.063001     -0.018031     -0.018882
Pd      7.09433      7.18642     11.98499        -0.018062     -0.021527     -0.023789
Pd      6.42752      7.76336      8.50868         0.044334      0.008473     -0.061477
Pd      7.32937      9.25654     13.51026         0.001244     -0.011826     -0.063418
Pd     11.32750      6.04473      9.22360        -0.005503      0.005952      0.018392
Pd      9.90514      9.60435      6.23863         0.027647     -0.015934      0.069441
Pd      9.12956     13.90799      9.25441         0.009331     -0.055035      0.027118
Pd     10.82999      7.13442     11.54266         0.071621      0.035659      0.003117
Pd     10.32639      9.03634      8.87583        -0.003299      0.044607      0.031582
Pd      9.26219     11.47782     10.40527        -0.021686     -0.010185      0.067366
Pd      8.83239      7.14551      9.66495         0.052723     -0.013533     -0.033589
Pd      9.01965      7.25400     13.74255         0.055909      0.005968     -0.074237
Pd      9.12157      9.10618     11.50864        -0.020171     -0.017327     -0.025080
Pd     12.37808     10.56137      8.07317        -0.024863      0.033634      0.047024
Pd      6.96622     12.06857      9.23522         0.057647      0.057399      0.001385
Pd      8.03976      9.89365      8.17486         0.029397     -0.035746      0.056310
Pd     13.97051      6.27072      8.46127         0.017034      0.039966      0.006078
Pd     13.23564      8.17133     12.22559         0.099115      0.026022     -0.022497
Pd      9.18685     11.30013     13.23236        -0.002489     -0.015875     -0.007975
Pd     14.10926     12.42952      8.79213        -0.032095      0.001314      0.003547
Pd     13.17177     10.76591     12.89375        -0.005036      0.034910      0.041070
Pd     14.25459     10.24309     10.33908        -0.019790     -0.032193      0.066019
Pd     11.59772     10.32066     10.83577        -0.011490      0.054458      0.075935
Pd     11.55654     12.89626      9.75823        -0.025549      0.050090      0.012224
Pd     13.71108     12.83984     11.47534        -0.022798     -0.012189      0.013994
Pd     11.27080     12.56785     12.33028        -0.016417      0.114730      0.018719
Pd     11.37891     11.47065     14.79839         0.008694     -0.033905     -0.030497
Pd     11.05905      9.20376     13.31489         0.047416      0.002439     -0.025029
Pd      9.47694      9.60492     15.34808        -0.013317      0.004703      0.001670
Pd      8.95438     13.70506     11.94380        -0.055703      0.030964     -0.017102
