21
# total energy = -121.55081232 eVC      6.03297      9.14031      7.50000         0.013442      0.001017      0.000000
C     12.06999      1.31144      7.50000        -0.013442     -0.001017      0.000000
C      7.17074     11.10630      7.50000        -0.007602      0.011132      0.000000
C     10.93223     -0.65455      7.50000         0.007602     -0.011132      0.000000
C      4.89925     11.10864      7.50000        -0.005840     -0.012150      0.000000
C     13.20371     -0.65689      7.50000         0.005840      0.012150      0.000000
C     10.93223      0.65455      7.50000         0.007602      0.011132     -0.000000
C      7.17074      9.79720      7.50000        -0.007602     -0.011132      0.000000
C     13.20371      0.65689      7.50000         0.005840     -0.012150      0.000000
C      4.89925      9.79486      7.50000        -0.005840      0.012150     -0.000000
C     12.06999     -1.31144      7.50000        -0.013442      0.001017      0.000000
C      6.03297     11.76319      7.50000         0.013442     -0.001017     -0.000000
O      8.16227      6.76603      7.50000        -0.000041      0.000070      0.000000
O      9.94069      3.68572      7.50000         0.000041     -0.000070     -0.000000
O      8.16227     14.13747      7.50000        -0.000041     -0.000070     -0.000000
O      9.94069     -3.68572      7.50000         0.000041      0.000070      0.000000
O      1.77842     10.45175      7.50000         0.000081      0.000000      0.000000
O     16.32454     -0.00000      7.50000        -0.000081     -0.000000     -0.000000
Pd      9.05148      5.22588      7.50000         0.000000      0.000000      0.000000
Pd      9.05148     -5.22588      7.50000         0.000000      0.000000      0.000000
Pd      0.00000     10.45175      7.50000         0.000000      0.000000      0.000000
