152
# total energy = -1060.13461232 eVH     10.35389      5.87395      7.64558        -0.328941      0.098418      1.096324
H     10.62451     15.10445      7.64558         0.053279     -0.065601      0.905066
H     10.62451      5.87395     13.33282        -0.264150      0.070716     -0.781415
H     10.35389     15.10445     13.33282         0.086514     -0.305200     -0.823238
H      7.64558     10.35389      5.87395         0.893242     -0.194495      0.206361
H      7.64558     10.62451     15.10445         0.319648     -0.032409     -0.059568
H     13.33282     10.62451      5.87395        -0.886735      0.222846      0.223759
H     13.33282     10.35389     15.10445        -0.280350     -0.027941     -0.062558
H      5.87395      7.64558     10.35389         0.093687      0.420621     -0.017086
H     15.10445      7.64558     10.62451        -0.035965      0.434518     -0.036971
H      5.87395     13.33282     10.62451        -0.021787     -0.970831      0.076281
H     15.10445     13.33282     10.35389        -0.069258     -0.323699      0.000611
H      5.87395     10.35389      7.64558         0.319400      0.061499      0.368890
H     15.10445     10.62451      7.64558        -0.121374     -0.162374      0.664411
H      5.87395     10.62451     13.33282        -0.060726      0.455956     -0.591446
H     15.10445     10.35389     13.33282         0.230585     -0.651615     -0.857072
H     10.35389      7.64558      5.87395        -0.026088      0.502753      0.346789
H     10.62451      7.64558     15.10445         0.347459      0.799121      0.004867
H     10.62451     13.33282      5.87395         0.158792     -0.565551      0.198292
H     10.35389     13.33282     15.10445         0.033242     -0.287687     -0.167956
H      7.64558      5.87395     10.35389         0.370925      0.112843      0.064832
H      7.64558     15.10445     10.62451         0.385797     -0.127640      0.177340
H     13.33282      5.87395     10.62451        -0.305965      0.136955     -0.013362
H     13.33282     15.10445     10.35389        -0.661676     -0.095946      0.130896
H     12.45634     12.45634     19.01126         0.258634      0.271964     -0.226775
H     19.01126     19.01126     19.01126        -0.247131     -0.268069     -0.244684
H     19.01126     12.45634     12.45634        -0.249555      0.271540      0.237378
H     12.45634     19.01126     12.45634         0.289528     -0.235552      0.235156
C     10.35284      5.61067      6.59456         0.406266     -0.427635     -1.366354
C     10.62556     15.36773      6.59456        -0.163355      0.605715     -0.657809
C     10.62556      5.61067     14.38384         0.364385     -0.282503      0.768819
C     10.35284     15.36773     14.38384        -0.205427      0.200983      1.023167
C      6.59456     10.35284      5.61067        -1.398492      0.031718     -0.232351
C      6.59456     10.62556     15.36773        -0.675172      0.064621      0.358775
C     14.38384     10.62556      5.61067         1.297294     -0.185939     -0.627802
C     14.38384     10.35284     15.36773         0.315527     -0.128177      0.344135
C      5.61067      6.59456     10.35284        -0.276067     -0.677095     -0.028833
C     15.36773      6.59456     10.62556         0.407227     -0.863775      0.033093
C      5.61067     14.38384     10.62556        -0.145183      1.201194     -0.222627
C     15.36773     14.38384     10.35284         0.514107      0.703163     -0.035758
C      5.61067     10.35284      6.59456        -0.380279     -0.102495     -0.795050
C     15.36773     10.62556      6.59456         0.410038      0.105393     -0.694168
C      5.61067     10.62556     14.38384        -0.423808     -0.166058      1.219327
C     15.36773     10.35284     14.38384         0.245991      0.220796      1.431270
C     10.35284      6.59456      5.61067        -0.069366     -0.750783     -0.557034
C     10.62556      6.59456     15.36773        -0.147571     -0.991434      0.378741
C     10.62556     14.38384      5.61067        -0.490821      0.370997     -0.739892
C     10.35284     14.38384     15.36773        -0.176222      0.775362      0.503370
C      6.59456      5.61067     10.35284        -0.566757     -0.338072      0.002949
C      6.59456     15.36773     10.62556        -0.374605      0.454285      0.062157
C     14.38384      5.61067     10.62556         0.430459     -0.307362      0.009262
C     14.38384     15.36773     10.35284         1.137900      0.500809     -0.074288
C     10.40319      3.19606      7.29314        -0.005759      0.750831     -0.329346
C     10.35913      4.25547      6.23373         0.020370     -0.384471      0.288157
C      0.08601      7.29314      7.29314        -0.019023     -0.372587     -0.507702
C      0.13007      6.23373      6.23373        -0.046035      0.893166      0.095226
C      0.08601      3.19606      3.19606        -0.007811      0.692983      0.261502
C      0.13007      4.25547      4.25547         0.041937     -0.262893     -0.543686
C     10.40319      7.29314      3.19606        -0.064704     -1.118788      0.608065
C     10.35913      6.23373      4.25547        -0.045243      0.346126     -0.199578
C      7.29314     10.40319      3.19606        -1.095910     -0.055705      0.197743
C      6.23373     10.35913      4.25547         0.378180      0.099777     -0.514595
C      7.29314      0.08601      7.29314        -0.458161      0.030370     -0.461716
C      6.23373      0.13007      6.23373         0.180499      0.124792      0.124233
C      3.19606      0.08601      3.19606         0.700003      0.024488      0.174361
C      4.25547      0.13007      4.25547        -0.169572     -0.047420     -0.367452
C      3.19606     10.40319      7.29314         0.351251     -0.025248     -0.948910
C      4.25547     10.35913      6.23373        -0.128162     -0.057085      0.111638
C      3.19606      7.29314     10.40319         0.611633     -0.399076      0.002649
C      4.25547      6.23373     10.35913        -0.117992      0.177478      0.013558
C      7.29314      7.29314      0.08601        -0.427454     -0.298592     -0.015627
C      6.23373      6.23373      0.13007         0.153386      0.153146     -0.056904
C      3.19606      3.19606      0.08601         0.292604      0.489926     -0.025071
C      4.25547      4.25547      0.13007        -0.400099     -0.238082     -0.031489
C      7.29314      3.19606     10.40319        -0.283617      0.593809     -0.010694
C      6.23373      4.25547     10.35913         0.018092     -0.090103      0.013968
O     10.43466      3.58206      8.50569        -0.026827      0.081641      0.310014
O     10.54374     17.39634      8.50569         0.065554     -0.126404      0.600343
O     10.54374      3.58206     12.47271         0.029225      0.101944     -0.398450
O     10.43466     17.39634     12.47271         0.094171     -0.062165     -0.425854
O      8.50569     10.43466      3.58206         0.738309     -0.071547      0.014884
O      8.50569     10.54374     17.39634         0.511747      0.059984     -0.102502
O     12.47271     10.54374      3.58206        -0.654389      0.109957      0.209591
O     12.47271     10.43466     17.39634        -0.274465      0.005406      0.034290
O      3.58206      8.50569     10.43466         0.035564      0.444847     -0.060371
O     17.39634      8.50569     10.54374        -0.053178      0.449026      0.056065
O      3.58206     12.47271     10.54374         0.102408     -0.587445      0.005449
O     17.39634     12.47271     10.43466        -0.178806     -0.739793     -0.052365
O      3.58206     10.43466      8.50569         0.211916     -0.062112      0.811841
O     17.39634     10.54374      8.50569        -0.083681      0.074252      0.514619
O      3.58206     10.54374     12.47271        -0.001828     -0.006426     -0.263124
O     17.39634     10.43466     12.47271         0.038264     -0.010853     -0.227902
O     10.43466      8.50569      3.58206        -0.106691      0.532261     -0.101023
O     10.54374      8.50569     17.39634         0.057255      0.509544     -0.089705
O     10.54374     12.47271      3.58206         0.103028     -0.639130      0.130513
O     10.43466     12.47271     17.39634        -0.067663     -0.673986     -0.264052
O      8.50569      3.58206     10.43466         0.397112      0.023217     -0.044830
O      8.50569     17.39634     10.54374         0.641509     -0.153494      0.047261
O     12.47271      3.58206     10.54374        -0.518054      0.121777      0.028857
O     12.47271     17.39634     10.43466        -0.623494     -0.125923      0.039907
O     11.90042     11.90042     19.56718        -0.279355     -0.305508      0.224261
O     19.56718     19.56718     19.56718         0.309079      0.323870      0.298463
O     19.56718     11.90042     11.90042         0.284206     -0.326018     -0.235836
O     11.90042     19.56718     11.90042        -0.314057      0.229420     -0.200633
O      9.45224      1.03696      9.45224        -0.071924      0.082799     -0.082877
O      1.03696      9.45224      9.45224         0.097417     -0.105049     -0.062175
O      1.03696      1.03696      1.03696         0.080026      0.051989      0.098701
O      9.45224      9.45224      1.03696        -0.057687     -0.125879      0.136045
Zr     10.48920      2.52580     10.48920         0.044400     -0.089342      0.120629
Zr     10.48920     18.45260     10.48920        -0.184465      0.246347     -0.362766
Zr     10.48920     10.48920      2.52580         0.109053      0.362765     -0.346989
Zr     10.48920     10.48920     18.45260        -0.076407     -0.259193      0.229606
Zr      2.52580     10.48920     10.48920        -0.239208      0.135374      0.240072
Zr     18.45260     10.48920     10.48920         0.198439     -0.137093     -0.010548
Pd      9.35816     14.28499      9.32976        -0.001609      0.009425     -0.014039
Pd      8.58657     13.63150     13.04034        -0.002743      0.000924      0.019987
Pd     12.01671     14.40955      8.73945         0.005869      0.000054      0.003709
Pd     12.77853     12.88307     10.66166        -0.038356     -0.000595      0.026437
Pd     12.11805      7.20001     12.67874         0.001074     -0.001695      0.007021
Pd     11.16791     14.89256     11.45990        -0.005665      0.010804     -0.008276
Pd     10.05576     12.53680     11.10688        -0.030964      0.030587     -0.022541
Pd     13.47838     12.15159      7.97822         0.005210      0.004966      0.007923
Pd     11.47641     11.53731      6.11259         0.005664      0.008177      0.001182
Pd      7.94447      8.39338      7.52687         0.005872     -0.015887     -0.001339
Pd      8.72342     11.75584      6.84835        -0.000463      0.002350     -0.003003
Pd     10.33327      9.45508      8.14606        -0.016146     -0.001038      0.012017
Pd      8.50191     14.46217      6.80217        -0.004466      0.001924     -0.000030
Pd     12.40194      9.00727      6.55482        -0.003040      0.013455      0.019706
Pd      9.71555      9.60710      5.57214         0.005240      0.003795      0.002823
Pd      6.79844      9.44571     12.13251         0.023797      0.010380      0.000958
Pd     12.17248      6.73985      7.95120         0.006024      0.001782      0.001983
Pd      5.91774     10.48789      9.68362         0.001123      0.003114      0.001629
Pd      7.54892      7.24469     13.41149        -0.003188     -0.003949     -0.011217
Ir     11.74727      9.78557     13.06419        -0.013640     -0.004705      0.015702
Ir     13.55642      9.05212     11.47018        -0.001304     -0.003069      0.006367
Ir      9.43474      8.85898     14.00744        -0.011643      0.001177      0.007029
Ir     10.50335     11.05370     14.84750        -0.003991     -0.025619      0.018002
Ir      7.27056     12.01830     11.33651         0.002720     -0.006150      0.006132
Ir     14.66187     10.89704     10.13059        -0.004346      0.014928      0.018388
Ir     12.16429     10.57200      9.68590         0.006868     -0.013108     -0.010748
Ir      8.72569     10.98521     12.98988         0.014262      0.000063     -0.007341
Ir     10.10877      9.91432     11.18538        -0.013939      0.001374     -0.017741
Ir     13.76285     11.41665     12.46259        -0.021655      0.005108      0.030277
Ir     11.63803     12.37506     13.08136        -0.042007     -0.010583      0.008652
Ir      8.50202     11.09656      9.33849        -0.003302     -0.008362      0.008271
Ir     11.58905      8.03068     10.14131         0.002739     -0.005196      0.001628
Ir      7.21030     13.02406      8.65109        -0.003663      0.010616     -0.000251
Ir      9.54581      6.96222      9.23973         0.005566      0.007356      0.006925
Ir      8.05528      8.76390     10.06157         0.008886      0.013089     -0.004445
Ir     10.72230     12.12328      8.50911        -0.008452      0.006341      0.001923
Ir      9.51221      7.56772     11.75689        -0.003957      0.007203     -0.005648
Ir     13.65794      8.79547      8.83213         0.005608      0.006213      0.015981
