152
# total energy = -1004.04096331 eVH     10.35389      5.87395      7.64558        -0.271454      0.255681      0.567523
H     10.62451     15.10445      7.64558        -0.307058     -0.130203      0.730198
H     10.62451      5.87395     13.33282         0.469238      0.026565     -0.938056
H     10.35389     15.10445     13.33282         0.064305     -0.184517     -0.490236
H      7.64558     10.35389      5.87395         0.459222      0.060497      0.071470
H      7.64558     10.62451     15.10445         0.748529      0.579899     -0.065761
H     13.33282     10.62451      5.87395        -0.450320     -0.181844      0.336566
H     13.33282     10.35389     15.10445        -0.682770     -0.124504     -0.040002
H      5.87395      7.64558     10.35389         0.095823      1.543525      0.097891
H     15.10445      7.64558     10.62451        -0.077139      0.544874      0.078744
H      5.87395     13.33282     10.62451         0.202735     -0.779855      0.094910
H     15.10445     13.33282     10.35389         0.140969     -1.310751     -0.144012
H      5.87395     10.35389      7.64558         0.066516      0.095580      0.619469
H     15.10445     10.62451      7.64558        -0.197758      0.839532      1.331422
H      5.87395     10.62451     13.33282        -0.048036      0.467496     -1.414763
H     15.10445     10.35389     13.33282         0.259218     -0.073640     -0.883533
H     10.35389      7.64558      5.87395         0.291971      1.423158      0.178985
H     10.62451      7.64558     15.10445         0.582324      0.951981     -0.044548
H     10.62451     13.33282      5.87395        -0.598802     -0.786267      0.187584
H     10.35389     13.33282     15.10445        -0.074926     -0.483395     -0.248275
H      7.64558      5.87395     10.35389         1.194529     -0.277886     -0.352155
H      7.64558     15.10445     10.62451         0.686112     -0.200889     -0.006377
H     13.33282      5.87395     10.62451        -0.708178      0.094623      0.544807
H     13.33282     15.10445     10.35389        -0.314493     -0.069980     -0.069003
H     12.45634     12.45634     19.01126         0.267986      0.243895     -0.236771
H     19.01126     19.01126     19.01126        -0.264653     -0.274034     -0.214983
H     19.01126     12.45634     12.45634        -0.269825      0.255591      0.234700
H     12.45634     19.01126     12.45634         0.258345     -0.279607      0.227169
C     10.35284      5.61067      6.59456        -0.089538     -0.840070     -0.726329
C     10.62556     15.36773      6.59456         0.151099      0.364142     -0.246540
C     10.62556      5.61067     14.38384        -0.085001     -0.714803      0.640494
C     10.35284     15.36773     14.38384        -0.006712      0.225456      0.496705
C      6.59456     10.35284      5.61067        -0.704685      0.077731     -0.493265
C      6.59456     10.62556     15.36773        -0.887216      0.206734      0.802580
C     14.38384     10.62556      5.61067         1.003968      0.044381     -1.010613
C     14.38384     10.35284     15.36773         1.027410     -0.049571      0.588804
C      5.61067      6.59456     10.35284        -0.782780     -0.700219     -0.470538
C     15.36773      6.59456     10.62556         0.735644      0.043713     -0.180243
C      5.61067     14.38384     10.62556        -0.265130      0.956959     -0.043599
C     15.36773     14.38384     10.35284         0.353589      1.443862     -0.158724
C      5.61067     10.35284      6.59456        -0.327300     -0.025065     -0.757442
C     15.36773     10.62556      6.59456         0.393933     -0.401975     -0.930438
C      5.61067     10.62556     14.38384        -0.364968     -0.073415      1.143726
C     15.36773     10.35284     14.38384         0.252051      0.010356      1.088897
C     10.35284      6.59456      5.61067        -0.000041     -1.112354     -0.318595
C     10.62556      6.59456     15.36773        -0.012831     -0.850784      0.659284
C     10.62556     14.38384      5.61067         0.086705      0.913354     -0.505716
C     10.35284     14.38384     15.36773        -0.022906      0.606547      0.319054
C      6.59456      5.61067     10.35284        -0.735530     -1.145874      0.148283
C      6.59456     15.36773     10.62556        -0.734606      0.171830      0.069904
C     14.38384      5.61067     10.62556        -0.037104     -0.516051     -0.330599
C     14.38384     15.36773     10.35284         0.044657      0.576359     -0.049103
C     10.40319      3.19606      7.29314        -0.002206      0.488920     -0.827888
C     10.35913      4.25547      6.23373        -0.017998     -0.474538      0.118163
C      0.08601      7.29314      7.29314        -0.037906     -1.007699     -0.270278
C      0.13007      6.23373      6.23373        -0.030184      0.419192      0.492030
C      0.08601      3.19606      3.19606         0.030783      1.113743      0.228366
C      0.13007      4.25547      4.25547         0.002970     -0.439414     -0.422712
C     10.40319      7.29314      3.19606        -0.022024     -0.637814      0.195615
C     10.35913      6.23373      4.25547        -0.049602      0.130836     -0.674285
C      7.29314     10.40319      3.19606        -0.398477      0.016069      0.225042
C      6.23373     10.35913      4.25547         0.197950      0.039877     -0.149537
C      7.29314      0.08601      7.29314        -1.188559     -0.077321     -0.407766
C      6.23373      0.13007      6.23373         0.655860     -0.189612      0.346370
C      3.19606      0.08601      3.19606         1.176790     -0.024541      0.253400
C      4.25547      0.13007      4.25547        -0.614245     -0.117241     -0.214934
C      3.19606     10.40319      7.29314         0.499028      0.029362     -0.255916
C      4.25547     10.35913      6.23373        -0.236226      0.034920      0.155240
C      3.19606      7.29314     10.40319         0.270909     -0.511502      0.056901
C      4.25547      6.23373     10.35913        -0.881696     -0.040952      0.148458
C      7.29314      7.29314      0.08601        -0.451138     -0.428602     -0.020735
C      6.23373      6.23373      0.13007         0.489713      0.270938      0.072995
C      3.19606      3.19606      0.08601         0.609943      0.468948     -0.020853
C      4.25547      4.25547      0.13007        -0.139761     -0.832594     -0.078666
C      7.29314      3.19606     10.40319        -0.346036      0.439025      0.050741
C      6.23373      4.25547     10.35913         0.523745     -0.677437      0.173653
O     10.43466      3.58206      8.50569         0.054059      0.251639      0.737071
O     10.54374     17.39634      8.50569         0.053191     -0.039633      0.323856
O     10.54374      3.58206     12.47271         0.004243     -0.024385     -0.267294
O     10.43466     17.39634     12.47271        -0.030236     -0.088553     -0.352650
O      8.50569     10.43466      3.58206         0.567338     -0.044101      0.153294
O      8.50569     10.54374     17.39634         0.877547     -0.083692     -0.174508
O     12.47271     10.54374      3.58206        -0.872094      0.148045      0.137446
O     12.47271     10.43466     17.39634        -0.571998      0.031490     -0.191056
O      3.58206      8.50569     10.43466         0.186671      0.618639     -0.045440
O     17.39634      8.50569     10.54374        -0.149454      0.611658      0.022041
O      3.58206     12.47271     10.54374         0.123681     -0.563990      0.043334
O     17.39634     12.47271     10.43466        -0.180598     -0.557387     -0.054138
O      3.58206     10.43466      8.50569         0.106440     -0.040685      0.383545
O     17.39634     10.54374      8.50569         0.056351      0.100593      0.328708
O      3.58206     10.54374     12.47271        -0.016998      0.030442     -0.235420
O     17.39634     10.43466     12.47271        -0.120221     -0.029855     -0.393775
O     10.43466      8.50569      3.58206        -0.045301      0.670777      0.187125
O     10.54374      8.50569     17.39634        -0.083819      0.796728     -0.151346
O     10.54374     12.47271      3.58206         0.141886     -0.911020      0.190235
O     10.43466     12.47271     17.39634        -0.004817     -0.393964     -0.033786
O      8.50569      3.58206     10.43466         0.545833      0.144437     -0.050283
O      8.50569     17.39634     10.54374         0.577568     -0.168249      0.018563
O     12.47271      3.58206     10.54374        -0.704217      0.124653      0.025730
O     12.47271     17.39634     10.43466        -0.508953     -0.129787     -0.031602
O     11.90042     11.90042     19.56718        -0.316967     -0.268473      0.252131
O     19.56718     19.56718     19.56718         0.292596      0.325259      0.212744
O     19.56718     11.90042     11.90042         0.342526     -0.287206     -0.248581
O     11.90042     19.56718     11.90042        -0.285572      0.348901     -0.217901
O      9.45224      1.03696      9.45224        -0.043932      0.100729     -0.114385
O      1.03696      9.45224      9.45224         0.070179     -0.029013     -0.101322
O      1.03696      1.03696      1.03696         0.056913      0.081552      0.112710
O      9.45224      9.45224      1.03696        -0.031892     -0.021837      0.104769
Zr     10.48920      2.52580     10.48920        -0.093904     -0.228599      0.171693
Zr     10.48920     18.45260     10.48920         0.027530      0.056802      0.054938
Zr     10.48920     10.48920      2.52580        -0.294269     -0.186293     -0.417372
Zr     10.48920     10.48920     18.45260         0.183288      0.028819      0.310369
Zr      2.52580     10.48920     10.48920        -0.129621     -0.061024     -0.065285
Zr     18.45260     10.48920     10.48920         0.103927     -0.040710      0.123071
Pd     12.61253      8.21775      9.74862         0.043528     -0.064085      0.037853
Pd      6.90600      9.60514     10.50785        -0.044036     -0.000784      0.010091
Pd      6.89297     11.78254     11.97536        -0.003815     -0.007546     -0.030466
Pd     12.26620     13.58668      7.32149         0.010290     -0.013878      0.035569
Pd     12.13996      7.93970      7.06470        -0.101672     -0.033541      0.073724
Pd      8.60366      7.43424      6.98727        -0.153625      0.045668      0.005902
Pd     11.64879     11.55030      5.70429        -0.101249     -0.017654     -0.052634
Pd     14.50552      8.85329      7.86255         0.008412     -0.086474     -0.041609
Pd      9.92666     11.81044      7.81466         0.015679      0.036268     -0.008634
Pd      7.16384      7.09663     11.98030        -0.110526      0.080778      0.023982
Pd      6.45504      7.84983      8.45862         0.027000     -0.067954      0.030625
Pd      7.25324      9.20924     13.48428         0.052051     -0.022715      0.017624
Pd     11.28656      6.04946      9.21850         0.075994     -0.004062      0.052155
Pd     10.04120      9.61876      6.25709        -0.116011      0.030388     -0.004384
Pd      9.10525     13.85721      9.30083         0.002742      0.071929     -0.024935
Pd     10.83001      7.04564     11.57649         0.090857     -0.059472     -0.094169
Pd     10.35236      9.12510      8.89581        -0.275842     -0.064210     -0.011206
Pd      9.23786     11.40032     10.40944         0.044778      0.052616      0.018119
Pd      8.82808      7.24015      9.67325         0.060723     -0.062167      0.066820
Pd      8.99954      7.23312     13.79615        -0.018735     -0.033209      0.134121
Pd      9.18194      9.04827     11.62179         0.076745      0.132339     -0.053362
Pd     12.38670     10.62829      8.12798         0.020508     -0.025135     -0.005130
Pd      6.94817     12.08369      9.27743        -0.013351     -0.012186     -0.043541
Pd      8.06312      9.96315      8.13267         0.059966     -0.092517     -0.026256
Pd     13.94492      6.33068      8.49533         0.029899     -0.035338     -0.059323
Pd     13.33046      7.88880     12.22976        -0.071076      0.142001      0.034734
Pd      9.16698     11.24651     13.20370         0.138562      0.009246     -0.007789
Pd     14.13428     12.47930      8.78571         0.022969     -0.005394     -0.076424
Pd     13.23882     10.53748     12.84134         0.003584      0.118626      0.064429
Pd     14.23993     10.20359     10.28673         0.058786      0.021697     -0.017626
Pd     11.56937     10.31599     10.92522        -0.074103      0.058565     -0.002075
Pd     11.54067     12.89099      9.75061        -0.054427     -0.014449      0.095398
Pd     13.70001     12.64585     11.44580        -0.009016      0.107732      0.044500
Pd     11.26963     12.60330     12.32061        -0.061976     -0.072895      0.078790
Pd     11.44586     11.37385     14.68367        -0.053478      0.054617     -0.015968
Pd     11.16754      9.00712     13.37522        -0.041219      0.157246     -0.056202
Pd      9.48507      9.62341     15.30164        -0.041282     -0.059709     -0.010042
Pd      8.87987     13.63182     11.95699         0.058713      0.033619      0.007751
