152
# total energy = -1109.78247542 eVH     10.35389      5.87395      7.64558        -0.379620     -0.682342      1.345189
H     10.62451     15.10445      7.64558         0.323000      0.066834      0.877677
H     10.62451      5.87395     13.33282        -0.108893     -1.275171     -1.709985
H     10.35389     15.10445     13.33282        -0.615501      0.518448     -0.495689
H      7.64558     10.35389      5.87395         0.493638     -0.510558      0.015294
H      7.64558     10.62451     15.10445         0.339444     -0.288451      0.066742
H     13.33282     10.62451      5.87395        -0.355860      0.345533      0.008201
H     13.33282     10.35389     15.10445        -0.457233      0.273664      0.120655
H      5.87395      7.64558     10.35389         0.027645      0.334940      0.046690
H     15.10445      7.64558     10.62451         0.292345      0.364367      0.082637
H      5.87395     13.33282     10.62451        -0.305241     -0.412296      0.416431
H     15.10445     13.33282     10.35389         0.055734     -0.335024     -0.418394
H      5.87395     10.35389      7.64558        -0.156124     -0.366006      1.646607
H     15.10445     10.62451      7.64558         0.111470      0.123286      0.895369
H      5.87395     10.62451     13.33282        -0.105024     -0.283844     -1.132629
H     15.10445     10.35389     13.33282         0.391881      0.556148     -1.244582
H     10.35389      7.64558      5.87395        -0.407132      0.641737     -0.395874
H     10.62451      7.64558     15.10445        -0.032412      0.729892      0.306889
H     10.62451     13.33282      5.87395         0.853998     -1.281879     -0.313437
H     10.35389     13.33282     15.10445         0.271506     -0.495378      0.007010
H      7.64558      5.87395     10.35389         0.973423      0.078721     -0.113081
H      7.64558     15.10445     10.62451         2.095325      0.776113      0.275418
H     13.33282      5.87395     10.62451        -2.268333     -0.806079      0.087153
H     13.33282     15.10445     10.35389        -0.848808     -0.055551     -0.263392
H     12.45634     12.45634     19.01126         0.268996      0.259868     -0.231409
H     19.01126     19.01126     19.01126        -0.267386     -0.250540     -0.239669
H     19.01126     12.45634     12.45634        -0.278146      0.292218      0.183393
H     12.45634     19.01126     12.45634         0.257526     -0.251156      0.237727
C     10.35284      5.61067      6.59456         0.121335     -0.326705     -1.827416
C     10.62556     15.36773      6.59456         0.180936      0.575238     -0.835452
C     10.62556      5.61067     14.38384         0.027363     -0.168711      2.143918
C     10.35284     15.36773     14.38384         0.152724      0.096332      1.882038
C      6.59456     10.35284      5.61067        -1.168502     -0.197595     -0.984759
C      6.59456     10.62556     15.36773        -0.609046     -0.141629      0.670828
C     14.38384     10.62556      5.61067         0.661709     -0.120833     -0.747521
C     14.38384     10.35284     15.36773         1.110613      0.142247      0.924519
C      5.61067      6.59456     10.35284        -0.942495     -0.650377     -0.101520
C     15.36773      6.59456     10.62556         1.855368     -0.074242      0.016516
C      5.61067     14.38384     10.62556        -1.455937      0.195991      0.013443
C     15.36773     14.38384     10.35284         0.516769      0.255591     -0.020358
C      5.61067     10.35284      6.59456        -0.317558      0.365796     -1.851499
C     15.36773     10.62556      6.59456         0.322257      0.045641     -0.840643
C      5.61067     10.62556     14.38384        -0.418226      0.235696      1.550166
C     15.36773     10.35284     14.38384         0.146144     -0.375569      1.748463
C     10.35284      6.59456      5.61067        -0.208081     -1.447575     -1.099720
C     10.62556      6.59456     15.36773        -0.054615     -1.128151      1.234499
C     10.62556     14.38384      5.61067        -0.480937      2.043870     -0.651934
C     10.35284     14.38384     15.36773        -0.224108      1.610553      0.327945
C      6.59456      5.61067     10.35284        -1.036589     -0.296479      0.058942
C      6.59456     15.36773     10.62556        -1.554507      0.254897     -0.350282
C     14.38384      5.61067     10.62556         1.294599     -0.245041     -0.222651
C     14.38384     15.36773     10.35284         0.361041      0.210828      0.076637
C     10.40319      3.19606      7.29314         0.021111      0.304035     -0.129602
C     10.35913      4.25547      6.23373         0.081546     -0.376206      0.319978
C      0.08601      7.29314      7.29314        -0.051113     -0.372366     -0.435569
C      0.13007      6.23373      6.23373        -0.140391      0.826117      0.056630
C      0.08601      3.19606      3.19606        -0.124840      1.544383      0.169606
C      0.13007      4.25547      4.25547        -0.177407     -0.426446     -1.343824
C     10.40319      7.29314      3.19606         0.038013     -0.446731      0.081411
C     10.35913      6.23373      4.25547         0.199706      0.223218     -0.371884
C      7.29314     10.40319      3.19606        -1.775655      0.025430      0.245009
C      6.23373     10.35913      4.25547         0.512591      0.035382     -0.528455
C      7.29314      0.08601      7.29314        -0.376983      0.019904     -0.269595
C      6.23373      0.13007      6.23373         0.355688      0.020807      0.332680
C      3.19606      0.08601      3.19606         0.597129      0.016622      0.323706
C      4.25547      0.13007      4.25547        -0.420583      0.015135     -0.402343
C      3.19606     10.40319      7.29314         0.380080      0.053101     -0.436205
C      4.25547     10.35913      6.23373        -0.703763      0.101633      0.434509
C      3.19606      7.29314     10.40319         0.387790     -0.363404      0.000442
C      4.25547      6.23373     10.35913        -0.010802      0.671449      0.106748
C      7.29314      7.29314      0.08601        -0.666833     -0.423767     -0.032684
C      6.23373      6.23373      0.13007         0.186494      1.314649      0.034069
C      3.19606      3.19606      0.08601         0.755809      0.428748     -0.016038
C      4.25547      4.25547      0.13007        -0.577369     -1.297782     -0.088292
C      7.29314      3.19606     10.40319        -0.367717      0.343820      0.002592
C      6.23373      4.25547     10.35913         0.563516     -0.249516      0.217487
O     10.43466      3.58206      8.50569        -0.045372      0.194328      0.283704
O     10.54374     17.39634      8.50569         0.043529     -0.212108      0.475418
O     10.54374      3.58206     12.47271         0.097610     -0.022638     -0.070620
O     10.43466     17.39634     12.47271        -0.038138     -0.106484     -0.227699
O      8.50569     10.43466      3.58206         0.935962      0.189131      0.406570
O      8.50569     10.54374     17.39634         0.555290      0.069808     -0.209589
O     12.47271     10.54374      3.58206        -0.477116     -0.007655      0.177481
O     12.47271     10.43466     17.39634        -0.516115     -0.070586     -0.183621
O      3.58206      8.50569     10.43466         0.159444      0.530598     -0.046943
O     17.39634      8.50569     10.54374        -0.176940      0.649159      0.047052
O      3.58206     12.47271     10.54374         0.152486     -0.615890      0.027975
O     17.39634     12.47271     10.43466        -0.180736     -0.547566     -0.008791
O      3.58206     10.43466      8.50569         0.224987     -0.086684      0.449340
O     17.39634     10.54374      8.50569        -0.157700      0.030145      0.429023
O      3.58206     10.54374     12.47271         0.160192     -0.006182     -0.405187
O     17.39634     10.43466     12.47271         0.088787     -0.060079     -0.038134
O     10.43466      8.50569      3.58206        -0.005803      0.346243      0.184685
O     10.54374      8.50569     17.39634         0.076684      0.479227     -0.206335
O     10.54374     12.47271      3.58206        -0.227024     -0.931026      0.340868
O     10.43466     12.47271     17.39634        -0.075968     -0.438342     -0.238463
O      8.50569      3.58206     10.43466         0.506510      0.184314     -0.018483
O      8.50569     17.39634     10.54374         0.601519     -0.201735      0.036876
O     12.47271      3.58206     10.54374        -0.701648      0.270465      0.043130
O     12.47271     17.39634     10.43466        -0.493848     -0.182975     -0.039657
O     11.90042     11.90042     19.56718        -0.329715     -0.307345      0.259712
O     19.56718     19.56718     19.56718         0.330041      0.305157      0.286551
O     19.56718     11.90042     11.90042         0.270629     -0.295474     -0.129135
O     11.90042     19.56718     11.90042        -0.317382      0.296847     -0.240916
O      9.45224      1.03696      9.45224        -0.052530      0.068161     -0.040279
O      1.03696      9.45224      9.45224         0.040534     -0.065706     -0.071936
O      1.03696      1.03696      1.03696         0.047018      0.121387      0.116959
O      9.45224      9.45224      1.03696        -0.123406     -0.069582      0.132988
Zr     10.48920      2.52580     10.48920         0.097661     -0.143913     -0.158720
Zr     10.48920     18.45260     10.48920        -0.035731      0.166951     -0.030235
Zr     10.48920     10.48920      2.52580         0.461353     -0.285759     -0.248282
Zr     10.48920     10.48920     18.45260        -0.030343     -0.063044      0.200571
Zr      2.52580     10.48920     10.48920        -0.073020      0.124592     -0.012478
Zr     18.45260     10.48920     10.48920         0.131890     -0.115262     -0.316070
Ir     12.00534     12.42621     10.45618         0.060335     -0.072640     -0.109988
Ir     10.74012      7.34656     10.41475         0.121619      0.026701      0.011806
Ir      8.41370      7.47420     11.69064         0.093524     -0.009537     -0.021051
Ir      7.29743     11.77918      7.71979         0.127246     -0.011316     -0.047163
Ir     11.46566     12.05451      7.14334         0.047521      0.039198      0.019928
Ir     13.39120      8.85205      7.60723        -0.065028     -0.129495     -0.043805
Ir     12.44254     13.90082      8.42572         0.080823     -0.032088      0.019850
Ir      9.59030     11.28255      5.57189        -0.024396      0.049977      0.021351
Ir      9.04643     13.45341      7.09487         0.015960      0.084600     -0.061068
Ir      9.05797      9.71080      7.59703         0.069483     -0.010964     -0.005054
Ir     12.96558      7.17033     11.87215         0.060459     -0.126083      0.086947
Ir     13.05914      6.95217      9.14484         0.182706     -0.145584      0.081235
Ir     10.68938      7.56861     12.93308         0.054591      0.034940      0.016755
Ir     13.48551     11.44893      8.69561         0.032640     -0.002621      0.017989
Ir     11.30447      9.64541      6.29471        -0.038881      0.083376     -0.084458
Ir      6.79399      9.43545      9.09776         0.118546     -0.099992     -0.109421
Ir     14.13379     11.43270     11.47548        -0.054814     -0.162699      0.008054
Ir     11.41963      9.85073      8.96533        -0.017104      0.205027      0.060945
Ir      9.13546      9.58198     10.30339         0.147779      0.058600      0.000110
Ir     13.63093      9.32281     10.17312        -0.019420     -0.078938      0.016146
Ir     13.61987      9.30190     12.83181         0.020352     -0.077212      0.029182
Ir     11.41094      9.64509     11.59799         0.033371      0.076554     -0.012516
Ir      9.78525     11.80366      9.02321         0.056950     -0.008384      0.010124
Ir      8.51260      7.52824      8.95745         0.282372     -0.090101     -0.102455
Ir     10.90178      7.62779      7.92250         0.375485     -0.015931     -0.002908
Ir      9.01523      9.56121     13.05733         0.045060     -0.009864     -0.024610
Ir      7.56011     14.05075      9.00418        -0.003285     -0.005532      0.009439
Ir     10.93612     13.99709     12.05207        -0.012550      0.117458     -0.008002
Ir     10.13382     14.19812      9.58664         0.049862      0.077157     -0.017517
Ir      9.71743     11.70343     11.74249         0.041122     -0.004920     -0.044298
Ir      7.48736     11.75588     10.28640        -0.017942     -0.003641     -0.005685
Ir      8.41297     13.86158     11.66654         0.012804      0.022136     -0.036552
Ir      7.49898     11.80590     12.95739        -0.035780      0.001121     -0.036883
Ir      9.81338     11.65108     14.32703        -0.037682      0.033870     -0.000506
Ir     13.48402     13.82477     12.16142         0.082951     -0.012706     -0.025435
Ir     12.08637     11.86363     13.03447        -0.028865      0.025166      0.030461
Ir     11.42821      9.71289     14.24698         0.021137      0.074746     -0.013721
Ir      6.86370      9.61910     11.62519         0.060968     -0.006338     -0.030035
