152
# total energy = -1004.22327430 eVH     10.35389      5.87395      7.64558        -0.231464      0.251731      0.620998
H     10.62451     15.10445      7.64558        -0.245684     -0.143249      0.697549
H     10.62451      5.87395     13.33282         0.469700      0.039457     -0.953105
H     10.35389     15.10445     13.33282         0.065880     -0.194769     -0.531820
H      7.64558     10.35389      5.87395         0.428913      0.067496      0.111314
H      7.64558     10.62451     15.10445         0.794444      0.599573     -0.026494
H     13.33282     10.62451      5.87395        -0.440945     -0.054710      0.298232
H     13.33282     10.35389     15.10445        -0.694407     -0.161668     -0.023026
H      5.87395      7.64558     10.35389         0.092109      1.824153      0.179613
H     15.10445      7.64558     10.62451        -0.100182      0.518230      0.126767
H      5.87395     13.33282     10.62451         0.208774     -0.740195      0.048725
H     15.10445     13.33282     10.35389         0.225586     -1.456164     -0.338772
H      5.87395     10.35389      7.64558         0.080790      0.071740      0.600201
H     15.10445     10.62451      7.64558        -0.198995      0.803981      1.326600
H      5.87395     10.62451     13.33282        -0.059869      0.452000     -1.320609
H     15.10445     10.35389     13.33282         0.134187     -0.140157     -0.754850
H     10.35389      7.64558      5.87395         0.226259      1.394525      0.174108
H     10.62451      7.64558     15.10445         0.555491      0.837438     -0.077515
H     10.62451     13.33282      5.87395        -0.558875     -0.806971      0.178727
H     10.35389     13.33282     15.10445        -0.133553     -0.526247     -0.292776
H      7.64558      5.87395     10.35389         1.111011     -0.303750     -0.131837
H      7.64558     15.10445     10.62451         0.727433     -0.211485     -0.029832
H     13.33282      5.87395     10.62451        -0.615188      0.117767      0.611002
H     13.33282     15.10445     10.35389        -0.371858     -0.038717     -0.127141
H     12.45634     12.45634     19.01126         0.273429      0.243555     -0.234594
H     19.01126     19.01126     19.01126        -0.267551     -0.272990     -0.213274
H     19.01126     12.45634     12.45634        -0.272394      0.254117      0.233483
H     12.45634     19.01126     12.45634         0.255608     -0.281450      0.228311
C     10.35284      5.61067      6.59456        -0.145849     -0.832944     -0.604034
C     10.62556     15.36773      6.59456         0.085356      0.360115     -0.280706
C     10.62556      5.61067     14.38384        -0.082366     -0.593531      0.627552
C     10.35284     15.36773     14.38384        -0.017115      0.239729      0.536130
C      6.59456     10.35284      5.61067        -0.693889      0.091561     -0.493686
C      6.59456     10.62556     15.36773        -0.990498      0.220697      0.741895
C     14.38384     10.62556      5.61067         0.876823      0.021758     -0.937331
C     14.38384     10.35284     15.36773         0.949614     -0.088977      0.484275
C      5.61067      6.59456     10.35284        -0.834299     -0.975554     -0.469069
C     15.36773      6.59456     10.62556         0.710958      0.001420     -0.224569
C      5.61067     14.38384     10.62556        -0.208467      0.874317     -0.019737
C     15.36773     14.38384     10.35284         0.300165      1.471793     -0.054788
C      5.61067     10.35284      6.59456        -0.295856      0.004484     -0.758297
C     15.36773     10.62556      6.59456         0.384150     -0.365191     -0.892752
C      5.61067     10.62556     14.38384        -0.365888     -0.007106      1.098373
C     15.36773     10.35284     14.38384         0.329056     -0.039481      0.883717
C     10.35284      6.59456      5.61067        -0.013433     -1.051955     -0.333809
C     10.62556      6.59456     15.36773         0.040423     -0.740778      0.566847
C     10.62556     14.38384      5.61067         0.106548      0.948745     -0.429532
C     10.35284     14.38384     15.36773        -0.026704      0.778112      0.391734
C      6.59456      5.61067     10.35284        -0.718288     -1.210967      0.160688
C      6.59456     15.36773     10.62556        -0.797830      0.137424      0.088142
C     14.38384      5.61067     10.62556        -0.048823     -0.494181     -0.402878
C     14.38384     15.36773     10.35284         0.079698      0.634238     -0.075035
C     10.40319      3.19606      7.29314         0.008470      0.634455     -0.844078
C     10.35913      4.25547      6.23373         0.010881     -0.525255      0.116826
C      0.08601      7.29314      7.29314        -0.026656     -1.034302     -0.263103
C      0.13007      6.23373      6.23373        -0.050453      0.395148      0.436537
C      0.08601      3.19606      3.19606         0.038807      1.136352      0.218658
C      0.13007      4.25547      4.25547        -0.002352     -0.420170     -0.420416
C     10.40319      7.29314      3.19606        -0.011192     -0.618720      0.214051
C     10.35913      6.23373      4.25547        -0.024305      0.128118     -0.706520
C      7.29314     10.40319      3.19606        -0.428260      0.017629      0.244395
C      6.23373     10.35913      4.25547         0.205005      0.060322     -0.094852
C      7.29314      0.08601      7.29314        -1.206658     -0.079584     -0.375075
C      6.23373      0.13007      6.23373         0.657204     -0.197822      0.366286
C      3.19606      0.08601      3.19606         1.216054     -0.015242      0.287733
C      4.25547      0.13007      4.25547        -0.583458     -0.152358     -0.235319
C      3.19606     10.40319      7.29314         0.549516      0.031443     -0.258747
C      4.25547     10.35913      6.23373        -0.213663      0.069397      0.188387
C      3.19606      7.29314     10.40319         0.292819     -0.557745      0.049693
C      4.25547      6.23373     10.35913        -0.992400      0.002465      0.161885
C      7.29314      7.29314      0.08601        -0.479234     -0.429737     -0.021452
C      6.23373      6.23373      0.13007         0.453154      0.306425      0.062462
C      3.19606      3.19606      0.08601         0.650572      0.452811     -0.022048
C      4.25547      4.25547      0.13007        -0.141693     -0.772414     -0.113297
C      7.29314      3.19606     10.40319        -0.384884      0.452836      0.053492
C      6.23373      4.25547     10.35913         0.607489     -0.702812      0.196260
O     10.43466      3.58206      8.50569         0.062676      0.213960      0.715251
O     10.54374     17.39634      8.50569         0.051424     -0.029362      0.305361
O     10.54374      3.58206     12.47271         0.005864     -0.038080     -0.237204
O     10.43466     17.39634     12.47271        -0.034210     -0.098271     -0.382205
O      8.50569     10.43466      3.58206         0.573891     -0.047317      0.147268
O      8.50569     10.54374     17.39634         0.873158     -0.082999     -0.156371
O     12.47271     10.54374      3.58206        -0.895182      0.144823      0.137127
O     12.47271     10.43466     17.39634        -0.613020      0.038969     -0.180891
O      3.58206      8.50569     10.43466         0.177802      0.656353     -0.035091
O     17.39634      8.50569     10.54374        -0.137834      0.622068      0.021346
O      3.58206     12.47271     10.54374         0.102172     -0.549382      0.050300
O     17.39634     12.47271     10.43466        -0.177396     -0.560571     -0.057274
O      3.58206     10.43466      8.50569         0.088065     -0.040867      0.386973
O     17.39634     10.54374      8.50569         0.055671      0.104458      0.325552
O      3.58206     10.54374     12.47271        -0.031304      0.029112     -0.232547
O     17.39634     10.43466     12.47271        -0.112517     -0.028373     -0.417057
O     10.43466      8.50569      3.58206        -0.044089      0.652482      0.181433
O     10.54374      8.50569     17.39634        -0.090397      0.810449     -0.157394
O     10.54374     12.47271      3.58206         0.120657     -0.930482      0.176019
O     10.43466     12.47271     17.39634         0.015274     -0.479826     -0.055922
O      8.50569      3.58206     10.43466         0.568054      0.150905     -0.051445
O      8.50569     17.39634     10.54374         0.596580     -0.166522      0.014637
O     12.47271      3.58206     10.54374        -0.745135      0.124141      0.014576
O     12.47271     17.39634     10.43466        -0.504227     -0.126874     -0.031573
O     11.90042     11.90042     19.56718        -0.324454     -0.264260      0.244218
O     19.56718     19.56718     19.56718         0.298173      0.324653      0.206015
O     19.56718     11.90042     11.90042         0.344590     -0.281950     -0.251791
O     11.90042     19.56718     11.90042        -0.281049      0.350772     -0.223694
O      9.45224      1.03696      9.45224        -0.033680      0.105931     -0.127711
O      1.03696      9.45224      9.45224         0.066072     -0.025909     -0.113498
O      1.03696      1.03696      1.03696         0.064194      0.094918      0.100191
O      9.45224      9.45224      1.03696        -0.035597     -0.026634      0.092974
Zr     10.48920      2.52580     10.48920        -0.096696     -0.250496      0.189726
Zr     10.48920     18.45260     10.48920         0.019084      0.057158      0.086753
Zr     10.48920     10.48920      2.52580        -0.316935     -0.229479     -0.397911
Zr     10.48920     10.48920     18.45260         0.182162     -0.002675      0.357868
Zr      2.52580     10.48920     10.48920        -0.135866     -0.046493     -0.066184
Zr     18.45260     10.48920     10.48920         0.101372     -0.051753      0.137884
Pd     12.66907      8.23954      9.70669         0.072140     -0.045382     -0.011672
Pd      6.72724      9.63615     10.49634         0.042550     -0.057819     -0.044212
Pd      6.93424     11.79265     11.94170         0.001299      0.004021     -0.006069
Pd     12.23962     13.46468      7.29196         0.000409      0.000228      0.001685
Pd     12.08358      7.89061      7.06989        -0.008102      0.003808      0.019916
Pd      8.52170      7.35237      6.95667         0.028232      0.005825     -0.028378
Pd     11.52849     11.44163      5.67467         0.009019      0.043092     -0.021763
Pd     14.47022      8.84322      7.80079         0.025277     -0.000392      0.014237
Pd      9.89494     11.78053      7.85555        -0.069922     -0.040414     -0.015926
Pd      7.07779      7.18328     11.97951        -0.003600      0.019708     -0.015588
Pd      6.45664      7.71391      8.50327        -0.029928      0.002382      0.027688
Pd      7.34286      9.27256     13.47017         0.026240     -0.018293     -0.039238
Pd     11.36643      6.02126      9.22089        -0.015698      0.035322     -0.005239
Pd      9.89930      9.57216      6.29929        -0.025817      0.001088      0.042400
Pd      9.13024     13.93536      9.26410         0.021915     -0.025771      0.068121
Pd     10.91712      7.19138     11.51788        -0.071214      0.025883      0.059817
Pd     10.32768      9.05170      8.93664        -0.057066      0.009141      0.015418
Pd      9.26682     11.50390     10.44471        -0.001125     -0.014210     -0.000305
Pd      8.87257      7.09651      9.64810         0.072490     -0.016131     -0.012127
Pd      9.06317      7.27624     13.66428         0.019153      0.007019     -0.032190
Pd      9.09492      9.09060     11.44645        -0.019108     -0.015006      0.022719
Pd     12.33042     10.58233      8.09779         0.029172      0.019002     -0.015955
Pd      7.01376     12.08402      9.21504         0.012412      0.006777      0.006203
Pd      8.03798      9.85108      8.21026        -0.007845     -0.027209      0.041652
Pd     13.99178      6.30437      8.46918         0.022302      0.011358      0.021964
Pd     13.32874      8.28098     12.22576         0.002536     -0.003191     -0.004688
Pd      9.19683     11.30911     13.20562        -0.059616     -0.043470      0.019313
Pd     14.08920     12.41613      8.81708        -0.027893      0.014492     -0.034487
Pd     13.16208     10.85154     12.95422         0.000692      0.047573      0.024747
Pd     14.25691     10.26147     10.39502         0.023315     -0.003039      0.022380
Pd     11.61407     10.39640     10.86746         0.004588      0.033691      0.013195
Pd     11.54511     12.91777      9.76624         0.004744      0.092186     -0.033700
Pd     13.69811     12.87429     11.48761         0.020125      0.032048     -0.002841
Pd     11.24820     12.67509     12.35530        -0.005272      0.030367     -0.010172
Pd     11.34453     11.48085     14.80335        -0.016738     -0.000193      0.021612
Pd     11.07328      9.24002     13.27531        -0.032238      0.016253     -0.016510
Pd      9.46495      9.58471     15.31906         0.000220      0.008210     -0.011070
Pd      8.87995     13.73862     11.95912         0.028103      0.010255     -0.021514
