152
# total energy = -1005.99818518 eVH     10.35389      5.87395      7.64558         0.259897      0.035043      0.638302
H     10.62451     15.10445      7.64558        -0.107843     -0.142035      0.517479
H     10.62451      5.87395     13.33282         0.485577      0.121041     -0.583798
H     10.35389     15.10445     13.33282         0.075806     -0.183931     -0.552700
H      7.64558     10.35389      5.87395         0.371612      0.074249      0.167154
H      7.64558     10.62451     15.10445         0.694780      0.470847     -0.040545
H     13.33282     10.62451      5.87395        -0.533062      0.420681      0.075159
H     13.33282     10.35389     15.10445        -0.802250     -0.094363      0.007666
H      5.87395      7.64558     10.35389         0.242619      0.710230     -0.376597
H     15.10445      7.64558     10.62451        -0.095047      0.481236      0.284106
H      5.87395     13.33282     10.62451         0.159171     -0.697205     -0.158371
H     15.10445     13.33282     10.35389        -0.008965     -1.029953     -0.327937
H      5.87395     10.35389      7.64558         0.255970      0.263776      0.710459
H     15.10445     10.62451      7.64558        -0.108841      0.405043      0.761953
H      5.87395     10.62451     13.33282         0.136738      0.328569     -0.692849
H     15.10445     10.35389     13.33282        -0.051299     -0.072962     -0.691417
H     10.35389      7.64558      5.87395         0.387722      1.051642     -0.009593
H     10.62451      7.64558     15.10445         0.536540      0.537063     -0.119965
H     10.62451     13.33282      5.87395        -0.397844     -0.843993      0.187238
H     10.35389     13.33282     15.10445        -0.044386     -0.433448     -0.216700
H      7.64558      5.87395     10.35389         0.849442      0.094079     -0.291439
H      7.64558     15.10445     10.62451         0.835909     -0.198114      0.009365
H     13.33282      5.87395     10.62451        -0.801854      0.194726      0.587748
H     13.33282     15.10445     10.35389        -0.443901     -0.110729     -0.131915
H     12.45634     12.45634     19.01126         0.235381      0.270441     -0.239777
H     19.01126     19.01126     19.01126        -0.262382     -0.240669     -0.261161
H     19.01126     12.45634     12.45634        -0.266806      0.268675      0.218691
H     12.45634     19.01126     12.45634         0.232170     -0.255757      0.278354
C     10.35284      5.61067      6.59456        -0.432462     -0.725366      0.190836
C     10.62556     15.36773      6.59456         0.062791      0.367190     -0.299298
C     10.62556      5.61067     14.38384        -0.331928     -0.364177     -0.303847
C     10.35284     15.36773     14.38384        -0.008653      0.336428      0.540840
C      6.59456     10.35284      5.61067        -0.231355     -0.003647     -0.379701
C      6.59456     10.62556     15.36773        -0.261461     -0.219765      0.807053
C     14.38384     10.62556      5.61067        -0.264446     -0.399717     -0.518304
C     14.38384     10.35284     15.36773         0.976183     -0.057074      0.254788
C      5.61067      6.59456     10.35284        -0.539509      0.000440      0.150606
C     15.36773      6.59456     10.62556         0.527531      0.023173     -0.250753
C      5.61067     14.38384     10.62556        -0.336657      0.973868      0.077829
C     15.36773     14.38384     10.35284         0.315584      1.038264      0.052882
C      5.61067     10.35284      6.59456        -0.180916     -0.296404     -0.617338
C     15.36773     10.62556      6.59456         0.446903     -0.286473      0.117651
C      5.61067     10.62556     14.38384        -0.721314     -0.352399     -0.064745
C     15.36773     10.35284     14.38384         0.384066     -0.062130      1.013537
C     10.35284      6.59456      5.61067        -0.206758     -0.220444     -0.658213
C     10.62556      6.59456     15.36773        -0.266931      0.124653      0.448818
C     10.62556     14.38384      5.61067         0.203424      1.064706     -0.347899
C     10.35284     14.38384     15.36773         0.024246      0.538484      0.438890
C      6.59456      5.61067     10.35284        -0.170199     -0.659013      0.237909
C      6.59456     15.36773     10.62556        -1.019275      0.297533      0.079434
C     14.38384      5.61067     10.62556         0.491992     -0.546478     -0.365019
C     14.38384     15.36773     10.35284         0.215198      0.456704     -0.102123
C     10.40319      3.19606      7.29314         0.009129      0.690388     -0.484371
C     10.35913      4.25547      6.23373         0.085768     -0.729068     -0.019470
C      0.08601      7.29314      7.29314        -0.043999     -0.409880     -0.310242
C      0.13007      6.23373      6.23373        -0.022759      0.083552      0.569295
C      0.08601      3.19606      3.19606        -0.016625      1.254348      0.280917
C      0.13007      4.25547      4.25547         0.049336     -0.777350     -0.152862
C     10.40319      7.29314      3.19606         0.010226     -0.339740      0.349202
C     10.35913      6.23373      4.25547         0.027589      0.010780     -0.884686
C      7.29314     10.40319      3.19606        -0.350215      0.020814      0.564026
C      6.23373     10.35913      4.25547         0.207334      0.056345     -0.113203
C      7.29314      0.08601      7.29314        -0.523027     -0.064519     -0.373286
C      6.23373      0.13007      6.23373         0.680658     -0.048953      0.487640
C      3.19606      0.08601      3.19606         0.681986     -0.036684      0.566466
C      4.25547      0.13007      4.25547        -0.575087     -0.082254     -0.552237
C      3.19606     10.40319      7.29314         0.482822     -0.018481     -0.777202
C      4.25547     10.35913      6.23373        -0.473331      0.035844      0.201144
C      3.19606      7.29314     10.40319         0.287052     -1.261043      0.040102
C      4.25547      6.23373     10.35913        -0.717252      0.102310      0.153343
C      7.29314      7.29314      0.08601        -0.407375     -0.371668     -0.027900
C      6.23373      6.23373      0.13007         0.468129      0.214006     -0.020281
C      3.19606      3.19606      0.08601         0.497314      0.373134     -0.039534
C      4.25547      4.25547      0.13007        -0.151653     -0.650122     -0.034535
C      7.29314      3.19606     10.40319        -0.322420      0.425032      0.075655
C      6.23373      4.25547     10.35913         0.262647     -0.692406      0.138803
O     10.43466      3.58206      8.50569        -0.015624      0.102763      0.505829
O     10.54374     17.39634      8.50569         0.036612     -0.174872      0.483404
O     10.54374      3.58206     12.47271         0.056891     -0.084288     -0.187141
O     10.43466     17.39634     12.47271        -0.038420     -0.183046     -0.561473
O      8.50569     10.43466      3.58206         0.329117      0.001930      0.033573
O      8.50569     10.54374     17.39634         0.631463      0.033643     -0.144858
O     12.47271     10.54374      3.58206        -0.682910      0.082946      0.092184
O     12.47271     10.43466     17.39634        -0.438851      0.026453     -0.111058
O      3.58206      8.50569     10.43466         0.181217      1.034545     -0.046396
O     17.39634      8.50569     10.54374        -0.161929      0.539285      0.076479
O      3.58206     12.47271     10.54374         0.084386     -0.364454      0.048954
O     17.39634     12.47271     10.43466        -0.157373     -0.546163     -0.022758
O      3.58206     10.43466      8.50569         0.076140     -0.063006      0.592766
O     17.39634     10.54374      8.50569        -0.110719      0.065975      0.522557
O      3.58206     10.54374     12.47271         0.053654      0.051118     -0.531420
O     17.39634     10.43466     12.47271        -0.218763     -0.039840     -0.594249
O     10.43466      8.50569      3.58206        -0.039572      0.467879      0.134853
O     10.54374      8.50569     17.39634         0.048877      0.530030     -0.160503
O     10.54374     12.47271      3.58206        -0.002004     -1.007779      0.205719
O     10.43466     12.47271     17.39634         0.042093     -0.732704     -0.174739
O      8.50569      3.58206     10.43466         0.506901      0.146464     -0.054227
O      8.50569     17.39634     10.54374         0.486754     -0.197691      0.014073
O     12.47271      3.58206     10.54374        -0.638752      0.234160      0.009145
O     12.47271     17.39634     10.43466        -0.214863      0.068902     -0.056384
O     11.90042     11.90042     19.56718        -0.239498     -0.289420      0.247403
O     19.56718     19.56718     19.56718         0.310428      0.295120      0.300452
O     19.56718     11.90042     11.90042         0.290395     -0.264913     -0.233160
O     11.90042     19.56718     11.90042        -0.242298      0.290612     -0.335113
O      9.45224      1.03696      9.45224        -0.020182      0.086599     -0.072846
O      1.03696      9.45224      9.45224         0.091129     -0.091744     -0.138542
O      1.03696      1.03696      1.03696         0.089377      0.190019      0.047965
O      9.45224      9.45224      1.03696        -0.111135     -0.101403      0.031561
Zr     10.48920      2.52580     10.48920        -0.130534     -0.290097     -0.036166
Zr     10.48920     18.45260     10.48920        -0.073796      0.214898      0.091539
Zr     10.48920     10.48920      2.52580         0.054654     -0.408400     -0.251287
Zr     10.48920     10.48920     18.45260        -0.273443     -0.090263      0.324049
Zr      2.52580     10.48920     10.48920        -0.377070      0.240069      0.301148
Zr     18.45260     10.48920     10.48920         0.239907     -0.001315     -0.223466
Pd     13.60633      8.98619      9.20578        -0.005677      0.001801     -0.009356
Pd      5.62816      9.86758     10.13011         0.004029      0.001417     -0.003902
Pd      6.77142     11.85009     11.71021         0.002604     -0.005859     -0.002020
Pd     12.05969     12.99795      7.36169        -0.002668     -0.004987      0.002095
Pd     11.87574      7.73803      7.45611         0.000354     -0.000909     -0.002562
Pd      8.31644      6.83390      6.54101        -0.003474     -0.010464     -0.011421
Pd     10.58074     11.16900      5.65279        -0.014144     -0.002936      0.005852
Pd     14.39852      8.54823      6.73201        -0.002549     -0.001613     -0.002695
Pd      9.66723     11.72924      8.14363         0.001636     -0.000083      0.007835
Pd      6.73470      6.78947     12.33653        -0.004687      0.001465      0.003073
Pd      6.59838      8.22519      7.92124         0.014627      0.034653     -0.030185
Pd      6.52588      8.49226     14.38366         0.003225      0.000240      0.000822
Pd     11.48559      6.51556      9.94924         0.001536     -0.010942     -0.000528
Pd      9.47090      9.19807      7.16620        -0.005929      0.001926      0.000359
Pd      8.97846     13.99128      9.35512         0.003954     -0.008643      0.010524
Pd      9.44125      7.36904     11.70333        -0.005852     -0.004893      0.001884
Pd     10.62807      8.96531      9.67712         0.007090      0.002640     -0.010777
Pd      9.34017     11.56164     10.73137        -0.003593      0.012571      0.004959
Pd      8.87075      7.06837      9.11749        -0.010019     -0.005247     -0.007255
Pd      8.55429      6.57967     14.23575         0.000249     -0.000167     -0.000834
Pd      7.62582      9.32321     12.02353        -0.011963      0.000932      0.006325
Pd     11.94787     10.37557      7.71298        -0.007634     -0.002957     -0.010786
Pd      7.12959     12.01414      9.06678        -0.000489      0.002552      0.003778
Pd      8.14490      9.62187      9.45522        -0.000515      0.002781      0.017270
Pd     14.01278      6.49881      8.52341        -0.002242     -0.001600     -0.000586
Pd     12.62612      8.40655     11.56876         0.002977     -0.004180      0.000190
Pd      8.76222     11.57250     13.41267        -0.003070      0.000534      0.000346
Pd     13.87487     11.91676      8.96816        -0.006774     -0.003148     -0.005186
Pd     12.93786     10.70092     13.07282        -0.003225     -0.000976      0.005001
Pd     14.76764     10.43382     11.11664         0.001264     -0.007585      0.000817
Pd     12.05598     10.89792     10.53601        -0.009724      0.003114     -0.001721
Pd     11.44617     13.34999      9.92938        -0.003373      0.001635      0.000849
Pd     13.59888     12.91492     11.62733        -0.002727     -0.002305      0.000350
Pd     11.11559     12.62374     12.54384        -0.001369      0.004009     -0.001091
Pd     10.94628     11.06432     14.81756        -0.001059      0.001474      0.000944
Pd     10.50243      9.72544     12.37980        -0.004605     -0.000603     -0.001256
Pd      9.08489      9.14152     14.43215        -0.003048     -0.000769      0.004773
Pd      8.80398     13.86178     12.05606        -0.002544     -0.001815      0.006720
