26
# total energy = -169.64903951 eVH      0.37196      6.90911      7.50000         0.010728      0.008155      0.000000
H      2.82085      2.06390      7.50000        -0.009797      0.002195     -0.000000
H      6.19135      6.71697      7.50000        -0.004003     -0.003880     -0.000000
H      8.94202     -1.55426      7.50000        -0.010728     -0.008155      0.000000
H      6.49313      3.29094      7.50000         0.009797     -0.002195     -0.000000
H      3.12263     -1.36212      7.50000         0.004003      0.003880     -0.000000
C      8.51005      4.15753      7.50000        -0.003978     -0.003187     -0.000000
C      1.45363     -0.08379      7.50000         0.006671     -0.000104      0.000000
C      8.70621     -3.71435      7.50000         0.000592      0.009170     -0.000000
C      0.80393      1.19732      7.50000         0.003978      0.003187     -0.000000
C      7.86036      5.43864      7.50000        -0.006671      0.000104     -0.000000
C      0.60778      9.06920      7.50000        -0.000592     -0.009170     -0.000000
C      8.20480     -2.36149      7.50000        -0.004494     -0.001709      0.000000
C      7.55137      2.98221      7.50000         0.008604     -0.009445      0.000000
C      2.85873     -0.31133      7.50000        -0.001675      0.013888      0.000000
C      1.10918      7.71634      7.50000         0.004494      0.001709      0.000000
C      1.76261      2.37264      7.50000        -0.008604      0.009445     -0.000000
C      6.45525      5.66618      7.50000         0.001675     -0.013888      0.000000
O      6.96050     -2.06956      7.50000         0.002029     -0.009656      0.000000
O      7.81410      1.77948      7.50000         0.003960     -0.006236     -0.000000
O      3.87005      0.52157      7.50000        -0.002432     -0.000479      0.000000
O      2.35348      7.42441      7.50000        -0.002029      0.009656     -0.000000
O      1.49989      3.57537      7.50000        -0.003960      0.006236     -0.000000
O      5.44393      4.83328      7.50000         0.002432      0.000479      0.000000
Au      5.62609     -0.54703      7.50000         0.004953     -0.008057     -0.000000
Au      3.68789      5.90188      7.50000        -0.004953      0.008057     -0.000000
