152
# total energy = -1061.44774092 eVH     10.35389      5.87395      7.64558        -0.206786      0.125959      1.034952
H     10.62451     15.10445      7.64558         0.445072     -0.115971      0.778884
H     10.62451      5.87395     13.33282        -0.091644      0.099558     -0.455646
H     10.35389     15.10445     13.33282         0.090943     -0.187931     -0.401730
H      7.64558     10.35389      5.87395         0.884205      0.199142      0.221354
H      7.64558     10.62451     15.10445         0.210774     -0.022676     -0.072016
H     13.33282     10.62451      5.87395        -0.599149     -0.051863      0.165931
H     13.33282     10.35389     15.10445        -0.323416     -0.057006     -0.075227
H      5.87395      7.64558     10.35389         0.127711      0.362200     -0.077983
H     15.10445      7.64558     10.62451        -0.138129      0.446748      0.180166
H      5.87395     13.33282     10.62451         0.106911     -0.635048      0.112526
H     15.10445     13.33282     10.35389        -0.229979     -0.437476      0.092137
H      5.87395     10.35389      7.64558         0.158136      0.278258      0.384717
H     15.10445     10.62451      7.64558        -0.137547     -0.369652      0.741800
H      5.87395     10.62451     13.33282         0.036085      0.153999     -0.704358
H     15.10445     10.35389     13.33282         0.079280     -0.250647     -0.737867
H     10.35389      7.64558      5.87395        -0.157638      0.446226      0.216014
H     10.62451      7.64558     15.10445         0.369249      0.612104     -0.120113
H     10.62451     13.33282      5.87395         0.086663     -0.557869      0.103246
H     10.35389     13.33282     15.10445         0.259655     -0.718373     -0.087228
H      7.64558      5.87395     10.35389         0.482233      0.144821     -0.152548
H      7.64558     15.10445     10.62451         0.397164     -0.147189      0.430411
H     13.33282      5.87395     10.62451        -0.389226      0.160507     -0.075247
H     13.33282     15.10445     10.35389        -0.579952     -0.293259      0.118525
H     12.45634     12.45634     19.01126         0.230636      0.265616     -0.248915
H     19.01126     19.01126     19.01126        -0.261625     -0.259089     -0.230395
H     19.01126     12.45634     12.45634        -0.234244      0.276065      0.235551
H     12.45634     19.01126     12.45634         0.276365     -0.210568      0.255794
C     10.35284      5.61067      6.59456         0.278477     -0.306984     -0.792701
C     10.62556     15.36773      6.59456        -0.189700      0.638921     -0.289683
C     10.62556      5.61067     14.38384         0.253753     -0.237256      0.487774
C     10.35284     15.36773     14.38384        -0.111835      0.273864      0.271419
C      6.59456     10.35284      5.61067        -0.833223     -0.099699     -0.239838
C      6.59456     10.62556     15.36773        -0.512369      0.045954      0.343988
C     14.38384     10.62556      5.61067         0.792113     -0.033228     -0.636910
C     14.38384     10.35284     15.36773         0.266287     -0.073888      0.351226
C      5.61067      6.59456     10.35284        -0.402603     -0.357168      0.079518
C     15.36773      6.59456     10.62556         0.313219     -0.482853     -0.070180
C      5.61067     14.38384     10.62556        -0.149531      0.499753     -0.397143
C     15.36773     14.38384     10.35284         0.414070      0.839564     -0.097126
C      5.61067     10.35284      6.59456        -0.315028     -0.172231     -0.108865
C     15.36773     10.62556      6.59456         0.213251      0.284168     -0.581100
C      5.61067     10.62556     14.38384        -0.339796     -0.042942      1.207328
C     15.36773     10.35284     14.38384         0.290204     -0.061722      0.996317
C     10.35284      6.59456      5.61067         0.080324     -0.246379     -0.509446
C     10.62556      6.59456     15.36773         0.013503     -0.781767      0.121079
C     10.62556     14.38384      5.61067        -0.383759      0.178082     -0.923103
C     10.35284     14.38384     15.36773        -0.259589      0.841236      0.269170
C      6.59456      5.61067     10.35284        -0.351653     -0.289422      0.255451
C      6.59456     15.36773     10.62556        -0.275073      0.519615     -0.057620
C     14.38384      5.61067     10.62556         0.473744     -0.373710      0.059365
C     14.38384     15.36773     10.35284         0.973449      0.269157     -0.063903
C     10.40319      3.19606      7.29314         0.008466      0.548465     -0.317276
C     10.35913      4.25547      6.23373        -0.013332     -0.530680      0.413462
C      0.08601      7.29314      7.29314        -0.014671     -0.844999     -0.563686
C      0.13007      6.23373      6.23373        -0.189339      0.877028      0.150749
C      0.08601      3.19606      3.19606        -0.010255      0.413062      0.386678
C      0.13007      4.25547      4.25547         0.065903     -0.227196     -0.571387
C     10.40319      7.29314      3.19606        -0.047429     -1.041491      0.776621
C     10.35913      6.23373      4.25547         0.016577      0.340403     -0.229612
C      7.29314     10.40319      3.19606        -1.315367     -0.084531      0.323092
C      6.23373     10.35913      4.25547         0.264945      0.019427     -0.700338
C      7.29314      0.08601      7.29314        -0.827108     -0.002117     -0.410497
C      6.23373      0.13007      6.23373         0.328983      0.053704      0.126044
C      3.19606      0.08601      3.19606         0.324511      0.000186      0.430060
C      4.25547      0.13007      4.25547        -0.284398     -0.032747     -0.178890
C      3.19606     10.40319      7.29314         0.494079     -0.040843     -1.033463
C      4.25547     10.35913      6.23373        -0.320802     -0.074361      0.097119
C      3.19606      7.29314     10.40319         1.086059     -0.443373      0.010774
C      4.25547      6.23373     10.35913        -0.194674      0.165577     -0.000316
C      7.29314      7.29314      0.08601        -0.500577     -0.280799     -0.007245
C      6.23373      6.23373      0.13007         0.172364      0.170631     -0.154413
C      3.19606      3.19606      0.08601         0.355464      0.878848     -0.008371
C      4.25547      4.25547      0.13007        -0.576211     -0.184528      0.039191
C      7.29314      3.19606     10.40319        -0.197064      0.497832      0.026222
C      6.23373      4.25547     10.35913        -0.011029     -0.367720      0.043635
O     10.43466      3.58206      8.50569        -0.023036      0.133806      0.390790
O     10.54374     17.39634      8.50569         0.041538      0.053466      0.364986
O     10.54374      3.58206     12.47271         0.041191      0.194330     -0.573922
O     10.43466     17.39634     12.47271         0.028525     -0.014122     -0.462552
O      8.50569     10.43466      3.58206         0.764943     -0.059270     -0.023919
O      8.50569     10.54374     17.39634         0.851379      0.022459     -0.161786
O     12.47271     10.54374      3.58206        -0.348665      0.037210      0.082408
O     12.47271     10.43466     17.39634        -0.377185     -0.036581      0.039714
O      3.58206      8.50569     10.43466        -0.104486      0.259641     -0.078281
O     17.39634      8.50569     10.54374        -0.106676      0.446338      0.042923
O      3.58206     12.47271     10.54374         0.150440     -0.821026     -0.022324
O     17.39634     12.47271     10.43466        -0.239224     -0.634270     -0.015403
O      3.58206     10.43466      8.50569         0.127759     -0.031595      0.793946
O     17.39634     10.54374      8.50569         0.000821      0.035592      0.341037
O      3.58206     10.54374     12.47271         0.067218      0.017991     -0.458610
O     17.39634     10.43466     12.47271         0.053345      0.012624     -0.239780
O     10.43466      8.50569      3.58206        -0.055458      0.564165     -0.071380
O     10.54374      8.50569     17.39634         0.028391      0.865612     -0.205090
O     10.54374     12.47271      3.58206         0.069733     -0.369521      0.075716
O     10.43466     12.47271     17.39634        -0.055527     -0.642469     -0.198679
O      8.50569      3.58206     10.43466         0.349152      0.082490     -0.052512
O      8.50569     17.39634     10.54374         0.558912     -0.165773     -0.016162
O     12.47271      3.58206     10.54374        -0.365956      0.050300      0.035967
O     12.47271     17.39634     10.43466        -0.836476     -0.144558      0.070848
O     11.90042     11.90042     19.56718        -0.243536     -0.283080      0.237486
O     19.56718     19.56718     19.56718         0.300371      0.293431      0.250154
O     19.56718     11.90042     11.90042         0.228862     -0.305238     -0.276270
O     11.90042     19.56718     11.90042        -0.274248      0.180117     -0.275860
O      9.45224      1.03696      9.45224        -0.107514      0.086808     -0.085803
O      1.03696      9.45224      9.45224         0.125293     -0.147612     -0.174354
O      1.03696      1.03696      1.03696         0.139819      0.208717     -0.003151
O      9.45224      9.45224      1.03696        -0.212727     -0.170592      0.030454
Zr     10.48920      2.52580     10.48920        -0.005283     -0.232449      0.148758
Zr     10.48920     18.45260     10.48920        -0.305252      0.307510     -0.152025
Zr     10.48920     10.48920      2.52580         0.360977      0.394681     -0.232567
Zr     10.48920     10.48920     18.45260        -0.002012      0.020328      0.468880
Zr      2.52580     10.48920     10.48920        -0.556548      0.020523      0.342551
Zr     18.45260     10.48920     10.48920         0.274423     -0.144832      0.002632
Pd      9.21670     14.65245      9.21901        -0.015336      0.024266     -0.005753
Pd      8.47769     13.21434     13.81742        -0.009144      0.007664      0.024277
Pd     12.15094     14.12126      8.65306         0.015648      0.018405      0.009763
Pd     12.24964     12.75614     10.89782         0.011592      0.003798     -0.003870
Pd     11.77697      7.08152     11.88579         0.002999      0.010960     -0.015472
Pd     11.17548     15.31525     10.92534         0.011922      0.004528      0.023685
Pd      9.61714     13.16748     11.40527        -0.015115     -0.021549     -0.002826
Pd     14.02793     12.39940      7.95852        -0.002760     -0.013209      0.013704
Pd     11.57571     11.76765      6.74448        -0.006967      0.020204      0.004344
Pd      7.42796      8.52819      7.18768         0.003113      0.014348      0.009190
Pd      8.61750     12.09452      6.91105        -0.012812      0.001204     -0.012278
Pd      9.71398      9.90310      7.99933        -0.002692      0.022202     -0.029051
Pd      8.47696     14.74525      6.57857         0.001858      0.004456     -0.005643
Pd     12.02186      9.06089      6.83631        -0.004083     -0.000306     -0.006680
Pd      9.90707     10.04378      5.39907        -0.000599      0.011592      0.023870
Pd      6.90235      9.22614     12.16850        -0.015969     -0.009909     -0.004681
Pd     12.39362      6.53044      7.66490         0.008037      0.003921     -0.001352
Pd      5.57002     10.69411     10.10464         0.016185      0.001030      0.015201
Pd      7.56034      6.67231     12.70121         0.002388     -0.016204     -0.009901
Ir     11.28423      9.53945     12.83594         0.008751     -0.001864     -0.007836
Ir     13.08073      9.23735     11.07380        -0.056660     -0.035216     -0.029840
Ir      9.15236      8.42256     13.75203         0.015485      0.018397      0.005659
Ir     10.27902     10.37122     15.06442        -0.017817     -0.003872      0.000722
Ir      7.10884     11.91388     11.84393        -0.018979      0.007866     -0.049475
Ir     14.40466     11.20061     10.31366         0.009651      0.004102     -0.004814
Ir     12.27358     10.62634      9.05039         0.018197     -0.012536      0.013096
Ir      8.92800     10.79281     12.88909         0.037017     -0.017568      0.020450
Ir     10.02423     10.28968     10.61221        -0.020337      0.002202     -0.001431
Ir     13.30421     11.19753     12.60772        -0.007232     -0.000693      0.006852
Ir     11.09881     12.04132     13.32615        -0.004283     -0.002406     -0.003488
Ir      7.95815     11.73396      9.50644        -0.021479     -0.003373      0.056185
Ir     11.27042      8.16118      9.43982         0.018801     -0.002466      0.033972
Ir      6.98384     13.59721      8.37375        -0.018257      0.005631      0.014503
Ir      9.05451      7.28956      8.79203        -0.020062     -0.006208     -0.002511
Ir      7.73419      9.21625      9.70389        -0.007593     -0.003410      0.002564
Ir     10.36351     12.34192      8.97917        -0.023485     -0.034921      0.010948
Ir      9.31721      7.89842     11.24839         0.005550      0.006384     -0.001886
Ir     13.73474      8.46963      8.78465         0.026114      0.009964      0.015076
