35
# total energy = -286.26899479 eVC      6.62283     10.18529      7.54871         0.011709      0.014192     -0.000206
C      8.01358      9.81635      7.54282         0.022030     -0.005949      0.001848
C      9.29257      5.60010      7.55615        -0.000766     -0.005691      0.000044
C      1.50979      5.33000      7.55800         0.006705      0.000339     -0.000221
C      4.17965      0.74470      7.57663        -0.014539     -0.019411     -0.000039
C      2.78860      1.11387      7.56927        -0.003094     -0.037281      0.002087
C      0.70647      4.14734      7.55921        -0.015603     -0.014143      0.000975
C      1.10361      2.76447      7.56197         0.010824     -0.030234      0.000870
C      5.34559      1.57180      7.58128         0.007151      0.002727     -0.001004
C      5.45662      9.35819      7.55422         0.004078     -0.013527     -0.000406
C     10.09594      6.78259      7.54722         0.019373      0.015574      0.000395
C      9.69815      8.16561      7.54202         0.042831      0.008014      0.002216
C      0.75536      6.54129      7.55242         0.010361      0.006192     -0.000070
C      1.19080      7.91927      7.54744        -0.018061      0.004092      0.000489
C     10.04705      4.38877      7.55595        -0.015201     -0.006078      0.000084
C      9.61162      3.01071      7.56062        -0.001101      0.000359      0.001949
C      4.23028     10.08771      7.55014        -0.008185     -0.012687      0.000484
C      2.86151      9.62410      7.54575        -0.009608      0.015637      0.002014
C      6.57219      0.84226      7.57642         0.004423      0.016942     -0.000570
C      7.94107      1.30575      7.57001         0.000769     -0.003186      0.000704
N      8.77956      0.22307      7.56601         0.032073      0.038236      0.001674
N      0.09091      8.73537      7.54404         0.043961      0.034401      0.002656
N      8.44088      8.56664      7.54322        -0.032436      0.025707      0.001472
N      2.36189      2.36256      7.56421        -0.031694      0.039608      0.002440
N      2.02298     10.70700      7.53983        -0.035490     -0.050100      0.002999
N     10.71107      2.19451      7.55887        -0.032367     -0.030924      0.002767
N      2.48236      8.32460      7.54811         0.005266      0.000101      0.000702
N      8.31985      2.60545      7.56736         0.005310     -0.002233     -0.000776
O      5.25686      2.86076      7.58948         0.000043     -0.030366     -0.007123
O      5.54575      8.06909      7.56172        -0.002140      0.040404     -0.004803
O      8.00208      5.66258      7.56503         0.031245      0.001539     -0.002671
O      2.80036      5.26725      7.56271        -0.036691     -0.000938     -0.004052
Pd      6.81535      4.07954      7.57802         0.004235     -0.004053     -0.006281
Pd      3.98721      6.85027      7.56144        -0.004352      0.002925     -0.003940
Pd      0.02569     10.73151      7.53978        -0.001057     -0.000183      0.003292
