7
# total energy = -58.27397583 eVC     -0.00000      2.88285      7.92285         0.000000      0.162091     -0.044986
C      1.25000      0.72169      7.92285        -0.140375     -0.081045     -0.044986
C      2.49662     -1.44142      7.92285         0.140375     -0.081045     -0.044986
C     -0.00000      1.44337      7.92285         0.000000     -0.162091     -0.044986
C      2.49662      1.44142      7.92285         0.140375      0.081045     -0.044986
C      1.25000     -0.72169      7.92285        -0.140375      0.081045     -0.044986
Ir     -0.00000     -0.00000      9.63959         0.000000     -0.000000      0.269918
