152
# total energy = -1022.71746205 eVH     10.35389      5.87395      7.64558         0.465557      0.029223      0.936094
H     10.62451     15.10445      7.64558        -0.013350      0.038098      0.735457
H     10.62451      5.87395     13.33282         0.138499      0.112349     -0.597929
H     10.35389     15.10445     13.33282        -0.273292     -0.072585     -0.553693
H      7.64558     10.35389      5.87395         0.344907     -0.051219      0.195164
H      7.64558     10.62451     15.10445         0.619396     -0.174516     -0.144319
H     13.33282     10.62451      5.87395        -0.930372     -0.392881      0.137453
H     13.33282     10.35389     15.10445        -0.479421     -0.088615     -0.054869
H      5.87395      7.64558     10.35389         0.108621      1.165385     -0.113633
H     15.10445      7.64558     10.62451        -0.169913      0.396214     -0.082120
H      5.87395     13.33282     10.62451         0.142519     -0.396798     -0.069160
H     15.10445     13.33282     10.35389        -0.081446     -0.955367     -0.256418
H      5.87395     10.35389      7.64558         0.123345      0.021759      0.464956
H     15.10445     10.62451      7.64558         0.155005     -0.244030      0.739702
H      5.87395     10.62451     13.33282         0.276817     -0.027894     -0.401629
H     15.10445     10.35389     13.33282        -0.146017      0.016515     -0.624060
H     10.35389      7.64558      5.87395         0.114082      0.813847      0.118775
H     10.62451      7.64558     15.10445         0.020822      0.621522     -0.137887
H     10.62451     13.33282      5.87395         0.130681     -0.609866      0.171278
H     10.35389     13.33282     15.10445        -0.242652     -0.888178     -0.112331
H      7.64558      5.87395     10.35389         0.533953      0.020365     -0.160914
H      7.64558     15.10445     10.62451         0.916031     -0.184098      0.346368
H     13.33282      5.87395     10.62451        -0.428871      0.189950     -0.060508
H     13.33282     15.10445     10.35389        -1.018387     -0.077134      0.263937
H     12.45634     12.45634     19.01126         0.268889      0.257561     -0.222800
H     19.01126     19.01126     19.01126        -0.248062     -0.235785     -0.261571
H     19.01126     12.45634     12.45634        -0.243529      0.270327      0.237818
H     12.45634     19.01126     12.45634         0.207924     -0.285508      0.254392
C     10.35284      5.61067      6.59456        -0.129692     -0.414287     -0.503771
C     10.62556     15.36773      6.59456         0.012382      0.344144     -1.085870
C     10.62556      5.61067     14.38384        -0.017807     -0.246553      0.713440
C     10.35284     15.36773     14.38384         0.211065      0.742766      0.081044
C      6.59456     10.35284      5.61067        -0.463214     -0.046834     -0.204704
C      6.59456     10.62556     15.36773        -0.787707      0.145935      0.357211
C     14.38384     10.62556      5.61067         0.808559      0.282569     -0.342736
C     14.38384     10.35284     15.36773         0.747704     -0.127781      0.428489
C      5.61067      6.59456     10.35284        -0.426669     -0.836429      0.226876
C     15.36773      6.59456     10.62556         0.203902     -0.474201      0.044451
C      5.61067     14.38384     10.62556        -0.267467      0.379491     -0.015638
C     15.36773     14.38384     10.35284         0.369213      0.202291      0.251524
C      5.61067     10.35284      6.59456        -0.313725     -0.005667     -0.889487
C     15.36773     10.62556      6.59456         0.549591     -0.125831     -1.240018
C      5.61067     10.62556     14.38384        -0.485685      0.007738      0.993684
C     15.36773     10.35284     14.38384         0.541892     -0.174539      1.267515
C     10.35284      6.59456      5.61067        -0.028467     -0.916968     -0.682943
C     10.62556      6.59456     15.36773         0.052527     -0.756293      0.330037
C     10.62556     14.38384      5.61067         0.018139      1.303708     -0.724435
C     10.35284     14.38384     15.36773         0.081719      0.602666      0.656852
C      6.59456      5.61067     10.35284        -0.265234     -0.909497      0.130464
C      6.59456     15.36773     10.62556        -1.759624      0.500221      0.022247
C     14.38384      5.61067     10.62556         0.563643     -0.221619     -0.007204
C     14.38384     15.36773     10.35284         0.308440      0.508660     -0.219702
C     10.40319      3.19606      7.29314         0.018071      0.938023     -0.245528
C     10.35913      4.25547      6.23373        -0.048898     -0.336036      0.652322
C      0.08601      7.29314      7.29314        -0.009427     -0.228397     -0.458213
C      0.13007      6.23373      6.23373        -0.005410      0.130609      0.201314
C      0.08601      3.19606      3.19606        -0.018996      0.662173      0.169140
C      0.13007      4.25547      4.25547        -0.094787     -0.194942     -0.167255
C     10.40319      7.29314      3.19606        -0.000221     -0.677392      0.512287
C     10.35913      6.23373      4.25547         0.002160      0.543325     -0.332066
C      7.29314     10.40319      3.19606        -0.374504      0.020760      0.837454
C      6.23373     10.35913      4.25547         0.218896      0.012730     -0.153291
C      7.29314      0.08601      7.29314        -0.301924     -0.047281     -0.252878
C      6.23373      0.13007      6.23373         0.255117     -0.061396      0.277553
C      3.19606      0.08601      3.19606         0.386648     -0.053652      1.327841
C      4.25547      0.13007      4.25547        -0.134671     -0.018390     -0.442116
C      3.19606     10.40319      7.29314         0.714341      0.016071     -0.266692
C      4.25547     10.35913      6.23373        -0.136093      0.034103      0.116470
C      3.19606      7.29314     10.40319         0.579734     -1.269217      0.034427
C      4.25547      6.23373     10.35913        -0.745549      0.785525      0.034561
C      7.29314      7.29314      0.08601        -0.646235     -0.170802     -0.024675
C      6.23373      6.23373      0.13007         0.169483      0.272938     -0.013729
C      3.19606      3.19606      0.08601         0.242060      0.252073     -0.020588
C      4.25547      4.25547      0.13007        -0.049998     -0.035632      0.017243
C      7.29314      3.19606     10.40319        -0.374191      0.747544      0.023314
C      6.23373      4.25547     10.35913         0.824022     -0.183092      0.027249
O     10.43466      3.58206      8.50569        -0.052172      0.024941      0.307673
O     10.54374     17.39634      8.50569        -0.020353     -0.187194      0.603107
O     10.54374      3.58206     12.47271         0.058606      0.058122     -0.314200
O     10.43466     17.39634     12.47271        -0.026393     -0.122903     -0.570078
O      8.50569     10.43466      3.58206         0.402442     -0.016472     -0.002730
O      8.50569     10.54374     17.39634         0.465126      0.055426     -0.143802
O     12.47271     10.54374      3.58206        -0.251496      0.058205     -0.095292
O     12.47271     10.43466     17.39634        -0.848063      0.021951     -0.215539
O      3.58206      8.50569     10.43466         0.032574      0.904657      0.043018
O     17.39634      8.50569     10.54374        -0.039921      0.344685      0.078687
O      3.58206     12.47271     10.54374         0.067206     -0.422530      0.061736
O     17.39634     12.47271     10.43466        -0.165233     -0.749990      0.013335
O      3.58206     10.43466      8.50569        -0.054524     -0.063000      0.232856
O     17.39634     10.54374      8.50569        -0.135037      0.041878      0.449486
O      3.58206     10.54374     12.47271        -0.039148     -0.056708     -0.883288
O     17.39634     10.43466     12.47271        -0.192701      0.037862     -0.749219
O     10.43466      8.50569      3.58206         0.038346      0.686992      0.195007
O     10.54374      8.50569     17.39634         0.052881      0.418421     -0.077393
O     10.54374     12.47271      3.58206        -0.020177     -0.729852      0.236893
O     10.43466     12.47271     17.39634         0.052069     -0.855544     -0.277761
O      8.50569      3.58206     10.43466         0.502720      0.087395     -0.040423
O      8.50569     17.39634     10.54374         0.649106     -0.244910     -0.057515
O     12.47271      3.58206     10.54374        -0.494204      0.161831      0.041172
O     12.47271     17.39634     10.43466        -0.514379     -0.036226     -0.037003
O     11.90042     11.90042     19.56718        -0.305840     -0.312252      0.263849
O     19.56718     19.56718     19.56718         0.288627      0.273656      0.320757
O     19.56718     11.90042     11.90042         0.282598     -0.329812     -0.241765
O     11.90042     19.56718     11.90042        -0.222096      0.294387     -0.240328
O      9.45224      1.03696      9.45224        -0.073361      0.052405     -0.065297
O      1.03696      9.45224      9.45224         0.065396     -0.139243     -0.051435
O      1.03696      1.03696      1.03696         0.049579      0.028638      0.186562
O      9.45224      9.45224      1.03696        -0.037772     -0.086943      0.125665
Zr     10.48920      2.52580     10.48920        -0.005581     -0.073740     -0.024783
Zr     10.48920     18.45260     10.48920         0.044764      0.291592     -0.070003
Zr     10.48920     10.48920      2.52580        -0.101928     -0.003820     -0.370625
Zr     10.48920     10.48920     18.45260        -0.136525     -0.175372      0.315003
Zr      2.52580     10.48920     10.48920        -0.330646      0.327859     -0.482965
Zr     18.45260     10.48920     10.48920         0.229114      0.040780     -0.262196
Pd      9.05896     10.28306     13.36592        -0.010462      0.002103     -0.020370
Pd     10.61703      9.74829     11.09371        -0.031498     -0.009016     -0.073627
Pd     13.75576      8.54719     12.71526         0.016867      0.000638     -0.017398
Pd     11.00191     11.10489     15.05418         0.003273     -0.019657     -0.030467
Pd     12.84977     11.19928     13.05965         0.007736     -0.009641     -0.017965
Pd     14.95775     10.90515     11.35837         0.018537      0.016177     -0.008241
Pd      6.67824      7.40762     12.32730        -0.008362      0.007546      0.010552
Pd      9.20725      7.25096     10.19944         0.006175      0.004939     -0.027540
Pd      9.26471      7.63857     12.85115        -0.000312     -0.013513     -0.022051
Pd     11.69681      7.28877     11.50044        -0.005560     -0.007533     -0.010770
Pd     11.31803      8.00135      8.88802         0.061514     -0.009871      0.014725
Pd      7.24602     11.83095     11.99685         0.015565      0.005983     -0.024969
Pd      8.87044     14.65665      9.32982         0.009725      0.027253     -0.001131
Pd      8.42589     12.68310     14.33138         0.010840     -0.010010     -0.013192
Pd     13.36562     14.00765      8.63624         0.078467      0.041148     -0.029154
Pd     10.85783     13.25119      8.45614         0.093009      0.045251      0.037992
Pd     14.06706     11.44968      8.93545         0.001329      0.058533     -0.001217
Pd      8.62405     14.10112     12.09354         0.010689     -0.001510      0.011889
Pd     12.24698     13.76825     14.01818        -0.006087     -0.015226      0.002613
Pd     11.13892     14.41764     11.07644         0.000174      0.014318      0.037187
Pd     14.07972     13.53544     12.18014        -0.011137      0.012025     -0.005685
Pd     12.32485     12.15099     10.68638        -0.016362     -0.008173     -0.011965
Pd     12.57448     12.19365      6.74902         0.047268      0.075449     -0.014061
Pd     13.56659      8.91460      7.91111         0.062096      0.006863     -0.016467
Pd      6.84898      8.45843      8.88188         0.013184      0.009024     -0.003885
Pd      5.52442      9.88119     11.33174         0.010916      0.035138     -0.031044
Pd      9.06945      9.80829      8.28828         0.014069     -0.044493      0.002644
Pd      8.86404      7.27512      7.53595        -0.033966     -0.016715     -0.038928
Pd      9.49337     12.05722     10.43696         0.022567      0.016933      0.033440
Pd     11.46762     10.67265      8.66847         0.043302      0.041010     -0.026358
Pd     11.15558      9.32365      6.45681         0.040462     -0.058827     -0.021588
Pd      9.78231     11.62185      6.34850         0.063304     -0.021374      0.002369
Ir     11.37070      9.09404     13.44709        -0.015566      0.027349     -0.028527
Ir     13.06510      9.42828     10.41055        -0.008142      0.004292      0.000238
Ir     10.55135     12.37549     12.70745        -0.043324      0.010992      0.001563
Ir      7.05949     10.97613      9.55746         0.029180     -0.021489      0.006221
Ir      8.30116     12.43863      8.21310         0.012010      0.020055     -0.040346
Ir      8.08024      9.32280     11.13774         0.000071      0.006884     -0.014677
