152
# total energy = -1024.16271961 eVH     10.35389      5.87395      7.64558         0.540818      0.061202      0.778652
H     10.62451     15.10445      7.64558         0.021243     -0.172144      0.550536
H     10.62451      5.87395     13.33282         0.143967      0.158764     -0.648455
H     10.35389     15.10445     13.33282        -0.363624     -0.069534     -0.723591
H      7.64558     10.35389      5.87395         0.326724     -0.009264      0.188311
H      7.64558     10.62451     15.10445         0.920712     -0.351685     -0.009842
H     13.33282     10.62451      5.87395        -0.743589      0.001417      0.181486
H     13.33282     10.35389     15.10445        -0.867580     -0.374426      0.188368
H      5.87395      7.64558     10.35389         0.213740      0.640100     -0.021777
H     15.10445      7.64558     10.62451        -0.146437      0.406237     -0.045586
H      5.87395     13.33282     10.62451         0.170545     -0.494056     -0.089685
H     15.10445     13.33282     10.35389        -0.112239     -1.106652      0.015494
H      5.87395     10.35389      7.64558         0.142292      0.115942      0.461289
H     15.10445     10.62451      7.64558         0.058799      0.132838      1.080420
H      5.87395     10.62451     13.33282         0.109314     -0.025406     -0.394994
H     15.10445     10.35389     13.33282        -0.085548     -0.155819     -0.630250
H     10.35389      7.64558      5.87395         0.084208      0.869894      0.208160
H     10.62451      7.64558     15.10445         0.016949      0.288602     -0.179735
H     10.62451     13.33282      5.87395        -0.055367     -0.543336      0.276632
H     10.35389     13.33282     15.10445        -0.483419     -0.685203     -0.049498
H      7.64558      5.87395     10.35389         0.471600      0.116108      0.058120
H      7.64558     15.10445     10.62451         0.843135     -0.274125     -0.006712
H     13.33282      5.87395     10.62451        -0.519449      0.169434     -0.070375
H     13.33282     15.10445     10.35389        -0.629500     -0.061480      0.224886
H     12.45634     12.45634     19.01126         0.240576      0.278848     -0.231080
H     19.01126     19.01126     19.01126        -0.254725     -0.241134     -0.247622
H     19.01126     12.45634     12.45634        -0.254953      0.272911      0.222617
H     12.45634     19.01126     12.45634         0.226722     -0.262329      0.245359
C     10.35284      5.61067      6.59456        -0.169448     -0.598584      0.051296
C     10.62556     15.36773      6.59456         0.001158      0.435068     -0.751290
C     10.62556      5.61067     14.38384        -0.043055     -0.100432      0.775101
C     10.35284     15.36773     14.38384         0.146286      0.689367      0.203984
C      6.59456     10.35284      5.61067        -0.387063     -0.030536     -0.254597
C      6.59456     10.62556     15.36773        -1.042894      0.363291      0.408563
C     14.38384     10.62556      5.61067         0.404377      0.293296     -0.590629
C     14.38384     10.35284     15.36773         1.001895     -0.030737      0.396103
C      5.61067      6.59456     10.35284        -0.381512     -0.502027      0.237276
C     15.36773      6.59456     10.62556         0.183459     -0.530626      0.028772
C      5.61067     14.38384     10.62556        -0.139911      0.508640     -0.000626
C     15.36773     14.38384     10.35284         0.348128     -0.035650     -0.129540
C      5.61067     10.35284      6.59456        -0.293370     -0.049075     -0.849119
C     15.36773     10.62556      6.59456         0.697443     -0.320261     -1.143823
C      5.61067     10.62556     14.38384        -0.505604     -0.012694      0.237840
C     15.36773     10.35284     14.38384         0.663001     -0.124935      1.135955
C     10.35284      6.59456      5.61067        -0.261772     -0.462604     -0.782865
C     10.62556      6.59456     15.36773         0.050933     -0.292591      0.117315
C     10.62556     14.38384      5.61067         0.156098      1.145665     -0.409804
C     10.35284     14.38384     15.36773         0.207776      0.156507      0.657978
C      6.59456      5.61067     10.35284        -0.377116     -0.742110      0.059881
C      6.59456     15.36773     10.62556        -1.237659      0.295956      0.072520
C     14.38384      5.61067     10.62556         0.774861     -0.257831      0.021576
C     14.38384     15.36773     10.35284        -0.515841      0.734329     -0.346271
C     10.40319      3.19606      7.29314        -0.011435      0.866581     -0.397187
C     10.35913      4.25547      6.23373         0.029958     -0.491015      0.579595
C      0.08601      7.29314      7.29314        -0.009496     -0.492097     -0.394551
C      0.13007      6.23373      6.23373        -0.019383      0.023805      0.098222
C      0.08601      3.19606      3.19606        -0.017690      1.052319      0.188746
C      0.13007      4.25547      4.25547        -0.063429     -0.213202     -0.248755
C     10.40319      7.29314      3.19606        -0.003750     -0.918089      0.468438
C     10.35913      6.23373      4.25547         0.025575      0.470737     -0.619069
C      7.29314     10.40319      3.19606        -0.444236      0.043763      0.827970
C      6.23373     10.35913      4.25547         0.244610      0.091734     -0.117321
C      7.29314      0.08601      7.29314        -0.475760     -0.027038     -0.253163
C      6.23373      0.13007      6.23373         0.409449     -0.062125      0.440898
C      3.19606      0.08601      3.19606         0.742461     -0.019220      0.366278
C      4.25547      0.13007      4.25547        -0.106966     -0.056294     -0.428584
C      3.19606     10.40319      7.29314         0.617427     -0.002808     -0.712758
C      4.25547     10.35913      6.23373        -0.250199      0.109245      0.233321
C      3.19606      7.29314     10.40319         0.505451     -1.333360     -0.036272
C      4.25547      6.23373     10.35913        -0.389875      0.834604      0.039540
C      7.29314      7.29314      0.08601        -0.496917     -0.233482     -0.013174
C      6.23373      6.23373      0.13007         0.171100      0.145988     -0.010285
C      3.19606      3.19606      0.08601         0.246334      0.278593     -0.021986
C      4.25547      4.25547      0.13007        -0.079134     -0.041935      0.016425
C      7.29314      3.19606     10.40319        -0.361376      0.722950      0.015077
C      6.23373      4.25547     10.35913         1.111511      0.066595      0.005149
O     10.43466      3.58206      8.50569        -0.032003      0.041841      0.442838
O     10.54374     17.39634      8.50569        -0.017960     -0.093591      0.462109
O     10.54374      3.58206     12.47271         0.052899     -0.048770     -0.183449
O     10.43466     17.39634     12.47271        -0.044399     -0.074221     -0.539119
O      8.50569     10.43466      3.58206         0.383237     -0.018176     -0.025220
O      8.50569     10.54374     17.39634         0.581431      0.029102     -0.159964
O     12.47271     10.54374      3.58206        -0.664870     -0.025103      0.160701
O     12.47271     10.43466     17.39634        -0.565311     -0.028192     -0.067906
O      3.58206      8.50569     10.43466         0.174526      1.126280     -0.001075
O     17.39634      8.50569     10.54374        -0.058750      0.386937      0.070066
O      3.58206     12.47271     10.54374         0.075777     -0.451947      0.035100
O     17.39634     12.47271     10.43466        -0.156493     -0.723560      0.013865
O      3.58206     10.43466      8.50569         0.007719     -0.072304      0.586502
O     17.39634     10.54374      8.50569        -0.099779      0.041595      0.369532
O      3.58206     10.54374     12.47271         0.031236      0.015833     -0.365353
O     17.39634     10.43466     12.47271        -0.211455      0.022507     -0.721872
O     10.43466      8.50569      3.58206         0.083820      0.813975      0.190364
O     10.54374      8.50569     17.39634         0.060872      0.657494     -0.146107
O     10.54374     12.47271      3.58206        -0.048347     -0.968000      0.245504
O     10.43466     12.47271     17.39634        -0.005173     -0.935835     -0.211631
O      8.50569      3.58206     10.43466         0.513232      0.088986     -0.022755
O      8.50569     17.39634     10.54374         0.595795     -0.233056     -0.030690
O     12.47271      3.58206     10.54374        -0.462555      0.144760      0.054457
O     12.47271     17.39634     10.43466        -0.399512      0.043620     -0.013479
O     11.90042     11.90042     19.56718        -0.270041     -0.332347      0.254682
O     19.56718     19.56718     19.56718         0.287208      0.276199      0.292761
O     19.56718     11.90042     11.90042         0.280106     -0.313136     -0.203836
O     11.90042     19.56718     11.90042        -0.270514      0.286512     -0.262564
O      9.45224      1.03696      9.45224        -0.082375      0.051796     -0.056707
O      1.03696      9.45224      9.45224         0.051057     -0.163794     -0.103076
O      1.03696      1.03696      1.03696         0.011616      0.084441      0.197428
O      9.45224      9.45224      1.03696        -0.057275     -0.082277      0.133812
Zr     10.48920      2.52580     10.48920        -0.019751     -0.091319     -0.152120
Zr     10.48920     18.45260     10.48920         0.058082      0.254969      0.013817
Zr     10.48920     10.48920      2.52580         0.009681     -0.166393     -0.535915
Zr     10.48920     10.48920     18.45260        -0.145621      0.043056      0.475885
Zr      2.52580     10.48920     10.48920        -0.370047      0.302557      0.116884
Zr     18.45260     10.48920     10.48920         0.209419      0.040083     -0.283683
Pd      8.60312      9.88902     13.29645         0.060305      0.013606      0.021351
Pd     10.54757      9.50741     10.33517        -0.074962      0.068951     -0.047461
Pd     13.44168      8.73770     12.51520         0.035281     -0.021656     -0.012928
Pd     10.66852     10.64165     15.11959        -0.134624      0.000367      0.001743
Pd     13.01056     11.31860     13.43574        -0.012486      0.006338      0.073398
Pd     14.98883     10.78764     11.28521        -0.088140     -0.060646     -0.027496
Pd      6.74915      7.92644     12.56293        -0.051400      0.002112     -0.022828
Pd      9.26341      7.19556      9.63555         0.024896      0.056019      0.024171
Pd      9.38711      7.47429     12.40686         0.121453      0.046943     -0.080373
Pd     11.69281      7.23483     11.11356         0.083474     -0.047511      0.035671
Pd     11.68149      7.83173      8.48335        -0.064759      0.001109     -0.061552
Pd      7.24420     11.71236     11.62407        -0.063462      0.019005      0.004119
Pd      9.29839     14.47781      9.46570        -0.069467      0.052917      0.030219
Pd      8.16313     12.38265     14.20924         0.057694      0.052536      0.011405
Pd     14.16495     14.21585      8.33940         0.031377     -0.025274     -0.033627
Pd     11.67984     13.41722      8.88931        -0.057237      0.043992      0.008382
Pd     14.04782     11.63521      8.92765         0.085005      0.037197     -0.010519
Pd      8.75822     13.91433     12.15621         0.085297     -0.031645     -0.013058
Pd     12.20658     13.82939     14.04938        -0.005891      0.000512     -0.043022
Pd     11.42393     14.10128     11.45517        -0.035645     -0.041349     -0.039523
Pd     14.06833     13.45080     12.15766        -0.006917      0.008402      0.004212
Pd     12.34899     11.64333     10.91816         0.021842      0.024873      0.023329
Pd     12.80243     12.63601      6.63624        -0.017456     -0.055069     -0.017523
Pd     13.93677      8.91081      7.67759         0.008801      0.023197     -0.088123
Pd      6.98881      8.43037      8.55080        -0.026392     -0.064402     -0.037198
Pd      5.61337     10.03274     10.24876        -0.113818     -0.001019      0.031259
Pd      9.38705      9.38015      7.66220        -0.020311      0.082505      0.000116
Pd      8.49027      6.89334      7.04496        -0.016749      0.031218     -0.080749
Pd      9.71975     11.96391     10.56913        -0.019709     -0.049303     -0.120476
Pd     11.62639     10.73147      8.19702         0.109676     -0.062873     -0.004207
Pd     11.68276      9.05132      6.08480         0.029858     -0.040286     -0.089726
Pd     10.24746     11.32194      5.90042         0.063528      0.039400     -0.051564
Ir     11.06612      9.54717     12.78950        -0.005989     -0.019804      0.026354
Ir     13.18842      9.34692     10.04954        -0.031739     -0.009819      0.002689
Ir     10.51507     12.02572     12.94366        -0.023106      0.119492     -0.005659
Ir      7.76797     10.94985      9.12037         0.028529      0.085440     -0.072130
Ir      9.38857     12.30649      8.05071        -0.042338     -0.182169      0.073906
Ir      8.09734      9.23133     10.85590        -0.019218     -0.067206      0.054356
