152
# total energy = -1004.30106147 eVH     10.35389      5.87395      7.64558        -0.162092      0.212874      0.652107
H     10.62451     15.10445      7.64558        -0.268991     -0.134163      0.668750
H     10.62451      5.87395     13.33282         0.474208      0.032933     -0.987762
H     10.35389     15.10445     13.33282         0.065236     -0.188994     -0.540571
H      7.64558     10.35389      5.87395         0.406181      0.067166      0.114581
H      7.64558     10.62451     15.10445         0.781192      0.578988     -0.026734
H     13.33282     10.62451      5.87395        -0.450388     -0.011332      0.262857
H     13.33282     10.35389     15.10445        -0.748299     -0.197433      0.017352
H      5.87395      7.64558     10.35389         0.092470      1.901604      0.179409
H     15.10445      7.64558     10.62451        -0.092741      0.506791      0.201977
H      5.87395     13.33282     10.62451         0.211637     -0.681479     -0.003011
H     15.10445     13.33282     10.35389         0.230626     -1.464271     -0.369627
H      5.87395     10.35389      7.64558         0.090292      0.059654      0.569093
H     15.10445     10.62451      7.64558        -0.169707      0.941193      1.381476
H      5.87395     10.62451     13.33282        -0.066029      0.467318     -1.312020
H     15.10445     10.35389     13.33282         0.135245     -0.185126     -0.771421
H     10.35389      7.64558      5.87395         0.293435      1.354541      0.160516
H     10.62451      7.64558     15.10445         0.557643      0.811006     -0.079817
H     10.62451     13.33282      5.87395        -0.602008     -0.828898      0.201438
H     10.35389     13.33282     15.10445        -0.173060     -0.533607     -0.313600
H      7.64558      5.87395     10.35389         1.144877     -0.244909     -0.105621
H      7.64558     15.10445     10.62451         0.772578     -0.206880     -0.023980
H     13.33282      5.87395     10.62451        -0.614659      0.116663      0.649511
H     13.33282     15.10445     10.35389        -0.419118     -0.025890     -0.156268
H     12.45634     12.45634     19.01126         0.273795      0.244179     -0.233920
H     19.01126     19.01126     19.01126        -0.266103     -0.272349     -0.215485
H     19.01126     12.45634     12.45634        -0.275155      0.252719      0.232530
H     12.45634     19.01126     12.45634         0.253220     -0.281215      0.229265
C     10.35284      5.61067      6.59456        -0.144444     -0.821987     -0.548024
C     10.62556     15.36773      6.59456         0.094943      0.365728     -0.226749
C     10.62556      5.61067     14.38384        -0.079452     -0.586687      0.669878
C     10.35284     15.36773     14.38384        -0.008543      0.248046      0.535068
C      6.59456     10.35284      5.61067        -0.641547      0.083511     -0.444388
C      6.59456     10.62556     15.36773        -1.022662      0.233286      0.735668
C     14.38384     10.62556      5.61067         0.792197      0.034205     -0.923630
C     14.38384     10.35284     15.36773         0.932204     -0.109288      0.448051
C      5.61067      6.59456     10.35284        -0.881426     -1.058182     -0.442209
C     15.36773      6.59456     10.62556         0.676647      0.067151     -0.263120
C      5.61067     14.38384     10.62556        -0.227620      0.781181      0.011939
C     15.36773     14.38384     10.35284         0.294365      1.426963     -0.018562
C      5.61067     10.35284      6.59456        -0.276966      0.017624     -0.737507
C     15.36773     10.62556      6.59456         0.406201     -0.358045     -0.997726
C      5.61067     10.62556     14.38384        -0.354177      0.002426      1.118768
C     15.36773     10.35284     14.38384         0.384181     -0.049822      0.868198
C     10.35284      6.59456      5.61067        -0.039475     -1.022107     -0.370015
C     10.62556      6.59456     15.36773         0.063186     -0.688764      0.553807
C     10.62556     14.38384      5.61067         0.133970      0.995446     -0.430253
C     10.35284     14.38384     15.36773        -0.020425      0.883379      0.453072
C      6.59456      5.61067     10.35284        -0.669878     -1.289199      0.109441
C      6.59456     15.36773     10.62556        -0.879423      0.165970      0.100297
C     14.38384      5.61067     10.62556        -0.073733     -0.524217     -0.346086
C     14.38384     15.36773     10.35284         0.134467      0.668837     -0.069372
C     10.40319      3.19606      7.29314         0.006987      0.708874     -0.752557
C     10.35913      4.25547      6.23373         0.011851     -0.540216      0.105152
C      0.08601      7.29314      7.29314        -0.020318     -1.010919     -0.261902
C      0.13007      6.23373      6.23373        -0.049469      0.407529      0.403448
C      0.08601      3.19606      3.19606         0.044694      1.189882      0.215008
C      0.13007      4.25547      4.25547        -0.006547     -0.412037     -0.455267
C     10.40319      7.29314      3.19606        -0.009583     -0.561124      0.216635
C     10.35913      6.23373      4.25547        -0.018665      0.125587     -0.696248
C      7.29314     10.40319      3.19606        -0.391619      0.022652      0.275077
C      6.23373     10.35913      4.25547         0.216240      0.072366     -0.103595
C      7.29314      0.08601      7.29314        -1.158023     -0.079910     -0.369633
C      6.23373      0.13007      6.23373         0.643278     -0.188866      0.360734
C      3.19606      0.08601      3.19606         1.162574     -0.017543      0.297857
C      4.25547      0.13007      4.25547        -0.571459     -0.157284     -0.220406
C      3.19606     10.40319      7.29314         0.550571      0.031732     -0.252459
C      4.25547     10.35913      6.23373        -0.221929      0.081654      0.207920
C      3.19606      7.29314     10.40319         0.307856     -0.573468      0.042003
C      4.25547      6.23373     10.35913        -1.046368      0.030710      0.176462
C      7.29314      7.29314      0.08601        -0.491718     -0.448883     -0.023992
C      6.23373      6.23373      0.13007         0.505562      0.302626      0.034030
C      3.19606      3.19606      0.08601         0.640550      0.439257     -0.024378
C      4.25547      4.25547      0.13007        -0.107162     -0.765944     -0.108946
C      7.29314      3.19606     10.40319        -0.413241      0.475500      0.050496
C      6.23373      4.25547     10.35913         0.599462     -0.741733      0.191301
O     10.43466      3.58206      8.50569         0.053118      0.182277      0.640304
O     10.54374     17.39634      8.50569         0.048867     -0.033583      0.309886
O     10.54374      3.58206     12.47271         0.003614     -0.051112     -0.218137
O     10.43466     17.39634     12.47271        -0.036631     -0.112002     -0.399008
O      8.50569     10.43466      3.58206         0.540917     -0.041789      0.134398
O      8.50569     10.54374     17.39634         0.858599     -0.081513     -0.166492
O     12.47271     10.54374      3.58206        -0.873815      0.137167      0.131456
O     12.47271     10.43466     17.39634        -0.621406      0.033178     -0.177614
O      3.58206      8.50569     10.43466         0.174817      0.675718     -0.026258
O     17.39634      8.50569     10.54374        -0.137899      0.635941      0.021416
O      3.58206     12.47271     10.54374         0.102565     -0.544442      0.056475
O     17.39634     12.47271     10.43466        -0.171205     -0.575833     -0.053918
O      3.58206     10.43466      8.50569         0.087717     -0.040528      0.390323
O     17.39634     10.54374      8.50569         0.054119      0.100240      0.333268
O      3.58206     10.54374     12.47271        -0.018890      0.034379     -0.242933
O     17.39634     10.43466     12.47271        -0.126218     -0.029135     -0.453414
O     10.43466      8.50569      3.58206        -0.035762      0.622243      0.178531
O     10.54374      8.50569     17.39634        -0.093381      0.814290     -0.177272
O     10.54374     12.47271      3.58206         0.112004     -0.954219      0.169196
O     10.43466     12.47271     17.39634         0.032158     -0.555193     -0.096345
O      8.50569      3.58206     10.43466         0.584221      0.151982     -0.052369
O      8.50569     17.39634     10.54374         0.595612     -0.166005      0.014201
O     12.47271      3.58206     10.54374        -0.743269      0.136782      0.007992
O     12.47271     17.39634     10.43466        -0.505522     -0.123728     -0.031529
O     11.90042     11.90042     19.56718        -0.327336     -0.266222      0.243730
O     19.56718     19.56718     19.56718         0.296356      0.325247      0.207018
O     19.56718     11.90042     11.90042         0.346253     -0.277550     -0.252256
O     11.90042     19.56718     11.90042        -0.279982      0.352809     -0.230268
O      9.45224      1.03696      9.45224        -0.028238      0.101486     -0.133770
O      1.03696      9.45224      9.45224         0.058173     -0.019555     -0.121079
O      1.03696      1.03696      1.03696         0.063629      0.101471      0.095427
O      9.45224      9.45224      1.03696        -0.039642     -0.027437      0.086080
Zr     10.48920      2.52580     10.48920        -0.089769     -0.250699      0.159158
Zr     10.48920     18.45260     10.48920         0.028385      0.056231      0.097557
Zr     10.48920     10.48920      2.52580        -0.323404     -0.277513     -0.383698
Zr     10.48920     10.48920     18.45260         0.188579     -0.024066      0.389258
Zr      2.52580     10.48920     10.48920        -0.140676     -0.044394     -0.070382
Zr     18.45260     10.48920     10.48920         0.121066     -0.048339      0.144639
Pd     12.73071      8.32602      9.75698        -0.002163      0.000850      0.045877
Pd      6.68777      9.60301     10.46666        -0.027895     -0.024577     -0.068312
Pd      6.91973     11.77027     11.90040         0.004521     -0.008018     -0.018556
Pd     12.26307     13.49555      7.23706         0.003717     -0.023483      0.032008
Pd     12.07919      7.92305      7.13829         0.001705     -0.021663      0.010756
Pd      8.51347      7.32329      6.91350        -0.002837      0.003149      0.001679
Pd     11.47721     11.45841      5.66475         0.012008      0.029200      0.001661
Pd     14.47926      8.88809      7.82360         0.020458     -0.003147     -0.005893
Pd      9.83080     11.79752      7.89810        -0.004447      0.015527      0.044115
Pd      7.08397      7.17092     11.96924        -0.004276     -0.009456      0.040886
Pd      6.46562      7.59011      8.49856        -0.022290      0.021970      0.032411
Pd      7.33473      9.27233     13.44305         0.014766     -0.064032     -0.031475
Pd     11.42533      6.09107      9.21594        -0.023326      0.034976     -0.008708
Pd      9.92863      9.56101      6.39011         0.021716     -0.010904     -0.039789
Pd      9.11630     13.98021      9.35101         0.015218     -0.031389     -0.008072
Pd     10.94544      7.21742     11.53774        -0.052038      0.068017     -0.018594
Pd     10.33257      9.08117      9.05926         0.136836      0.043089      0.026989
Pd      9.33350     11.51336     10.51273         0.020704      0.013684     -0.012284
Pd      8.92764      7.04106      9.59996        -0.051635     -0.027649     -0.003551
Pd      9.09394      7.29356     13.62931        -0.029746      0.071018     -0.036069
Pd      9.05062      9.07328     11.40746        -0.003571      0.034966      0.084427
Pd     12.27980     10.60718      8.06311         0.000695     -0.004761      0.010957
Pd      7.13179     12.04277      9.17859        -0.009351     -0.028394      0.007467
Pd      8.03972      9.74208      8.22285        -0.052567      0.001576      0.041827
Pd     14.04145      6.36953      8.50498        -0.005180     -0.030918     -0.018298
Pd     13.31623      8.42202     12.28296         0.046592     -0.037082     -0.000220
Pd      9.14764     11.34276     13.22973        -0.014866      0.024005     -0.018920
Pd     14.03274     12.40653      8.82014        -0.018655     -0.020355      0.004087
Pd     13.17699     11.00357     13.05923         0.009379     -0.002831      0.045309
Pd     14.36237     10.33434     10.47882         0.029081     -0.044093      0.031469
Pd     11.74956     10.55692     10.84461        -0.052824     -0.025916     -0.127649
Pd     11.54191     13.03324      9.72599         0.034804      0.007162     -0.011087
Pd     13.67225     12.95560     11.49173        -0.009512      0.007857     -0.030706
Pd     11.20415     12.74226     12.35437        -0.000357      0.017197     -0.008975
Pd     11.26975     11.52473     14.83299         0.000426     -0.006090      0.020220
Pd     11.03315      9.38340     13.17064        -0.058063     -0.016916      0.004768
Pd      9.44303      9.56151     15.28436         0.068333     -0.009632     -0.011617
Pd      8.80948     13.76501     12.01475        -0.003480     -0.006510     -0.006024
