26
# total energy = -208.95142496 eVC      8.64629      1.68603      0.00000         0.029253     -0.004979      0.000000
C      0.69013      7.65039      0.00000        -0.029253      0.004979      0.000000
C      7.65039      8.64629      0.00000         0.004979      0.029253      0.000000
C      1.68603      0.69013     -0.00000        -0.004979     -0.029253      0.000000
C      0.69013      1.68603      0.00000        -0.029253     -0.004979     -0.000000
C      8.64629      7.65039     -0.00000         0.029253      0.004979      0.000000
C      1.68603      8.64629     -0.00000        -0.004979      0.029253     -0.000000
C      7.65039      0.69013      0.00000         0.004979     -0.029253     -0.000000
C      8.03976      2.97862     -0.00000         0.008937      0.001474      0.000000
C      1.29666      6.35780      0.00000        -0.008937     -0.001474     -0.000000
C      6.35780      8.03976     -0.00000        -0.001474      0.008937      0.000000
C      2.97862      1.29666     -0.00000         0.001474     -0.008937     -0.000000
C      1.29666      2.97862      0.00000        -0.008937      0.001474     -0.000000
C      8.03976      6.35780      0.00000         0.008937     -0.001474      0.000000
C      2.97862      8.03976      0.00000         0.001474      0.008937      0.000000
C      6.35780      1.29666      0.00000        -0.001474     -0.008937      0.000000
N      2.66860      6.66782      0.00000        -0.004051      0.004051     -0.000000
N      6.66782      2.66860     -0.00000         0.004051     -0.004051     -0.000000
N      2.66860      2.66860     -0.00000        -0.004051     -0.004051     -0.000000
N      6.66782      6.66782      0.00000         0.004051      0.004051     -0.000000
Ir     -0.00000      4.66821      0.00000        -0.000000      0.000000     -0.000000
Ir      4.66821      0.00000      0.00000        -0.000000      0.000000     -0.000000
Ir      4.66821      6.44022      0.00000        -0.000000      0.001003     -0.000000
Ir      4.66821      2.89620      0.00000        -0.000000     -0.001003     -0.000000
Ir      2.89620      4.66821     -0.00000        -0.001003     -0.000000     -0.000000
Ir      6.44022      4.66821      0.00000         0.001003      0.000000     -0.000000
