32
# total energy = -234.69250454 eVH      7.29944     -2.19579      0.00000         0.002681     -0.008129      0.000000
H      0.32992      4.60037      0.00000        -0.002681      0.008129      0.000000
H      4.72126      5.98440      0.00000        -0.002465      0.008197      0.000000
H      2.90811     -3.57983      0.00000         0.002465     -0.008197      0.000000
C      6.12747     -3.80208     -0.00000         0.004498      0.016092      0.000000
C      1.50190      6.20666     -0.00000        -0.004498     -0.016092      0.000000
C      2.84005      6.62841      0.00000         0.012912     -0.010605     -0.000000
C      4.78931     -4.22383      0.00000        -0.012912      0.010605     -0.000000
C      6.95980      2.19355     -0.00000        -0.039105     -0.012325     -0.000000
C      4.49192      1.41574      0.00000        -0.004122     -0.001299      0.000000
C      0.66956      0.21103     -0.00000         0.039105      0.012325     -0.000000
C      3.13744      0.98884     -0.00000         0.004122      0.001299      0.000000
C      5.81900     -5.15712      0.00000         0.008027     -0.025468      0.000000
C      1.81036      7.56170      0.00000        -0.008027      0.025468      0.000000
N      4.70448      2.78977      0.00000         0.007278      0.015061      0.000000
N      6.02816      3.18122      0.00000        -0.013662      0.005519      0.000000
N      6.33067     -2.49292      0.00000        -0.001688     -0.008737      0.000000
N      2.92488     -0.38519      0.00000        -0.007278     -0.015061      0.000000
N      1.60121     -0.77665     -0.00000         0.013662     -0.005519      0.000000
N      1.29869      4.89750      0.00000         0.001688      0.008737      0.000000
N      5.45392      0.41190      0.00000         0.014598     -0.008166      0.000000
N      6.76284      0.85017     -0.00000        -0.008029     -0.012356     -0.000000
N      3.75719      5.67236     -0.00000        -0.006392      0.006191     -0.000000
N      2.17544      1.99268     -0.00000        -0.014598      0.008166      0.000000
N      0.86652      1.55441     -0.00000         0.008029      0.012356      0.000000
N      3.87217     -3.26778      0.00000         0.006392     -0.006191     -0.000000
O      1.42096      8.79721      0.00000        -0.003744      0.011879      0.000000
O      6.20840     -6.39263      0.00000         0.003744     -0.011879      0.000000
Ir      6.81533     -8.31832      0.00000        -0.002840      0.009010      0.000000
Ir      0.81403     10.72290      0.00000         0.002840     -0.009010      0.000000
Ir      2.98806      3.82503      0.00000        -0.002979      0.009451      0.000000
Ir      4.64130     -1.42045      0.00000         0.002979     -0.009451      0.000000
