152
# total energy = -1024.45244958 eVH     10.35389      5.87395      7.64558         0.484834      0.025447      0.752906
H     10.62451     15.10445      7.64558         0.066771     -0.201354      0.622623
H     10.62451      5.87395     13.33282         0.103911      0.148249     -0.588128
H     10.35389     15.10445     13.33282        -0.513099     -0.025189     -0.755550
H      7.64558     10.35389      5.87395         0.350318      0.026600      0.163159
H      7.64558     10.62451     15.10445         0.966105     -0.238714      0.059470
H     13.33282     10.62451      5.87395        -0.802749     -0.131539      0.153425
H     13.33282     10.35389     15.10445        -0.907549     -0.455491      0.218194
H      5.87395      7.64558     10.35389         0.158791      0.725474     -0.303246
H     15.10445      7.64558     10.62451        -0.142114      0.380399     -0.015104
H      5.87395     13.33282     10.62451         0.155478     -0.501587     -0.099528
H     15.10445     13.33282     10.35389        -0.090879     -1.177043      0.110360
H      5.87395     10.35389      7.64558         0.137837      0.166590      0.503410
H     15.10445     10.62451      7.64558         0.006133      0.110618      1.023171
H      5.87395     10.62451     13.33282         0.068475     -0.039396     -0.471303
H     15.10445     10.35389     13.33282        -0.191754     -0.134909     -0.416573
H     10.35389      7.64558      5.87395         0.085187      0.995274      0.221750
H     10.62451      7.64558     15.10445         0.001443      0.270639     -0.155830
H     10.62451     13.33282      5.87395        -0.085488     -0.392124      0.318842
H     10.35389     13.33282     15.10445        -0.432779     -0.565747      0.003127
H      7.64558      5.87395     10.35389         0.546172      0.083343     -0.115487
H      7.64558     15.10445     10.62451         0.958650     -0.200022     -0.210780
H     13.33282      5.87395     10.62451        -0.588922      0.087089     -0.068105
H     13.33282     15.10445     10.35389        -0.577091     -0.066180      0.263662
H     12.45634     12.45634     19.01126         0.237836      0.276684     -0.237081
H     19.01126     19.01126     19.01126        -0.248293     -0.249615     -0.242519
H     19.01126     12.45634     12.45634        -0.267432      0.264580      0.219391
H     12.45634     19.01126     12.45634         0.236601     -0.267139      0.240782
C     10.35284      5.61067      6.59456        -0.219264     -0.677867      0.083797
C     10.62556     15.36773      6.59456        -0.051037      0.378267     -0.842981
C     10.62556      5.61067     14.38384        -0.006781     -0.058729      0.724043
C     10.35284     15.36773     14.38384         0.208582      0.694456      0.164562
C      6.59456     10.35284      5.61067        -0.364398     -0.015319     -0.305163
C      6.59456     10.62556     15.36773        -1.111815      0.261820      0.283596
C     14.38384     10.62556      5.61067         0.441132      0.373822     -0.677140
C     14.38384     10.35284     15.36773         1.118207      0.048192      0.210024
C      5.61067      6.59456     10.35284        -0.436924     -0.371678      0.355924
C     15.36773      6.59456     10.62556         0.188393     -0.495916      0.009847
C      5.61067     14.38384     10.62556        -0.206287      0.540496     -0.010336
C     15.36773     14.38384     10.35284         0.308020      0.044321     -0.115598
C      5.61067     10.35284      6.59456        -0.333354     -0.084831     -0.989533
C     15.36773     10.62556      6.59456         0.896426     -0.343110     -0.953083
C      5.61067     10.62556     14.38384        -0.442377      0.029923      0.301945
C     15.36773     10.35284     14.38384         0.646795     -0.098269      1.043998
C     10.35284      6.59456      5.61067        -0.252136     -0.563412     -0.943286
C     10.62556      6.59456     15.36773         0.062201     -0.256121      0.048978
C     10.62556     14.38384      5.61067         0.060439      1.198198     -0.414257
C     10.35284     14.38384     15.36773         0.276368      0.176572      0.727189
C      6.59456      5.61067     10.35284        -0.193066     -0.739789      0.172250
C      6.59456     15.36773     10.62556        -1.260569      0.243038      0.183601
C     14.38384      5.61067     10.62556         1.085701     -0.299642      0.041277
C     14.38384     15.36773     10.35284        -0.455837      0.778395     -0.407812
C     10.40319      3.19606      7.29314        -0.036082      0.917720     -0.427942
C     10.35913      4.25547      6.23373         0.055388     -0.537560      0.532105
C      0.08601      7.29314      7.29314        -0.021254     -0.393293     -0.347556
C      0.13007      6.23373      6.23373        -0.024887      0.013773      0.097896
C      0.08601      3.19606      3.19606         0.010571      1.274360      0.196759
C      0.13007      4.25547      4.25547        -0.047124     -0.226586     -0.203537
C     10.40319      7.29314      3.19606        -0.013774     -1.056385      0.373708
C     10.35913      6.23373      4.25547         0.041987      0.485116     -0.665585
C      7.29314     10.40319      3.19606        -0.319034      0.028547      0.726224
C      6.23373     10.35913      4.25547         0.137770      0.058834     -0.099945
C      7.29314      0.08601      7.29314        -0.664128     -0.017854     -0.267493
C      6.23373      0.13007      6.23373         0.378101     -0.081769      0.564550
C      3.19606      0.08601      3.19606         1.004203     -0.006252      0.257057
C      4.25547      0.13007      4.25547        -0.171200     -0.037681     -0.526549
C      3.19606     10.40319      7.29314         0.357740     -0.008925     -0.923977
C      4.25547     10.35913      6.23373        -0.272669      0.090572      0.233024
C      3.19606      7.29314     10.40319         0.522175     -1.365397     -0.036912
C      4.25547      6.23373     10.35913        -0.564983      0.723892      0.102834
C      7.29314      7.29314      0.08601        -0.389405     -0.241491      0.003368
C      6.23373      6.23373      0.13007         0.157920      0.153850     -0.001871
C      3.19606      3.19606      0.08601         0.267614      0.241621     -0.016686
C      4.25547      4.25547      0.13007        -0.124683     -0.051935      0.005465
C      7.29314      3.19606     10.40319        -0.397539      0.618058      0.006755
C      6.23373      4.25547     10.35913         1.060551     -0.147109      0.052325
O     10.43466      3.58206      8.50569        -0.023688      0.033991      0.438638
O     10.54374     17.39634      8.50569        -0.006117     -0.116344      0.468753
O     10.54374      3.58206     12.47271         0.040531     -0.106945     -0.130049
O     10.43466     17.39634     12.47271        -0.058485     -0.042677     -0.476716
O      8.50569     10.43466      3.58206         0.289252     -0.028322     -0.039991
O      8.50569     10.54374     17.39634         0.718390      0.028806     -0.205158
O     12.47271     10.54374      3.58206        -0.783331     -0.038082      0.147904
O     12.47271     10.43466     17.39634        -0.285904     -0.030311      0.033823
O      3.58206      8.50569     10.43466         0.160032      1.118921     -0.030086
O     17.39634      8.50569     10.54374        -0.101601      0.444245      0.059614
O      3.58206     12.47271     10.54374         0.067350     -0.395193      0.035453
O     17.39634     12.47271     10.43466        -0.157538     -0.669702     -0.010402
O      3.58206     10.43466      8.50569         0.068099     -0.068115      0.794045
O     17.39634     10.54374      8.50569        -0.062433      0.043764      0.330560
O      3.58206     10.54374     12.47271        -0.011964      0.037596     -0.240035
O     17.39634     10.43466     12.47271        -0.255706     -0.005001     -0.719149
O     10.43466      8.50569      3.58206         0.118644      0.836810      0.192177
O     10.54374      8.50569     17.39634         0.032417      0.595937     -0.141253
O     10.54374     12.47271      3.58206         0.005078     -1.011467      0.176188
O     10.43466     12.47271     17.39634        -0.044233     -0.955204     -0.213671
O      8.50569      3.58206     10.43466         0.566702      0.131164     -0.015831
O      8.50569     17.39634     10.54374         0.501779     -0.192994     -0.010533
O     12.47271      3.58206     10.54374        -0.481372      0.162888      0.059381
O     12.47271     17.39634     10.43466        -0.402942      0.034987     -0.007854
O     11.90042     11.90042     19.56718        -0.270048     -0.324938      0.257327
O     19.56718     19.56718     19.56718         0.277050      0.293439      0.284262
O     19.56718     11.90042     11.90042         0.301522     -0.300471     -0.202683
O     11.90042     19.56718     11.90042        -0.263394      0.284634     -0.249225
O      9.45224      1.03696      9.45224        -0.080806      0.049789     -0.058710
O      1.03696      9.45224      9.45224         0.042950     -0.153581     -0.113427
O      1.03696      1.03696      1.03696         0.024867      0.121122      0.196016
O      9.45224      9.45224      1.03696        -0.069821     -0.086774      0.117387
Zr     10.48920      2.52580     10.48920        -0.051256     -0.127179     -0.167357
Zr     10.48920     18.45260     10.48920         0.007308      0.214238     -0.026448
Zr     10.48920     10.48920      2.52580        -0.165983     -0.194620     -0.511815
Zr     10.48920     10.48920     18.45260         0.009868     -0.029656      0.433034
Zr      2.52580     10.48920     10.48920        -0.371190      0.310773      0.169083
Zr     18.45260     10.48920     10.48920         0.204465      0.067709     -0.203040
Pd      8.27672      9.65638     13.27240        -0.005412     -0.015189     -0.014922
Pd     10.47731      9.42505     10.20090        -0.028721     -0.001080     -0.004985
Pd     12.96675      8.78826     12.47932         0.003860      0.006029      0.004254
Pd     10.29627     10.83592     15.07023        -0.005679     -0.006806     -0.005900
Pd     12.75756     11.36915     13.61784         0.002422      0.013022     -0.006054
Pd     14.84842     10.55396     11.35812         0.000772     -0.005959     -0.000838
Pd      6.90156      7.44886     12.30404        -0.013106     -0.001362     -0.002154
Pd      9.20635      7.17166      9.46854        -0.016416      0.005654     -0.000701
Pd      9.59370      7.53526     12.22294        -0.010185      0.008365      0.006855
Pd     11.75275      7.06420     10.79747         0.001208     -0.007124      0.005029
Pd     11.60929      7.81843      8.25772         0.019310      0.006818     -0.007479
Pd      7.17690     11.65592     11.52735        -0.004535      0.006947     -0.005704
Pd      9.27330     14.31099      9.24352        -0.001073     -0.003478      0.000228
Pd      8.11204     12.29804     14.01481         0.005651      0.001132     -0.009372
Pd     14.22090     14.16011      8.35765         0.000839      0.003353      0.006287
Pd     11.72473     13.26929      8.80112        -0.003024      0.005764      0.000094
Pd     14.09806     11.58668      9.02061        -0.009753     -0.004724      0.006308
Pd      8.67964     13.97907     11.98565        -0.005321     -0.001866      0.012267
Pd     12.22244     14.02163     13.92061        -0.008086     -0.019604     -0.005540
Pd     11.39759     14.13553     11.28292         0.010401     -0.000197      0.006375
Pd     13.99725     13.23556     12.09242        -0.004803      0.005100      0.007799
Pd     12.26214     11.47765     10.92797        -0.001115      0.005182      0.006645
Pd     13.00169     12.58460      6.60500        -0.005487     -0.001694     -0.008212
Pd     13.95193      8.83787      7.57950        -0.018106     -0.001724      0.019228
Pd      6.95944      8.43214      8.38985         0.015744     -0.008462     -0.007244
Pd      5.55135     10.00894     10.07111        -0.010344     -0.006674      0.002255
Pd      9.38031      9.44354      7.44198        -0.001525     -0.001811      0.007619
Pd      8.47250      6.95081      6.86948        -0.001176      0.000701      0.008604
Pd      9.67151     11.94090     10.50935        -0.007696      0.000768     -0.000647
Pd     11.77495     10.60195      8.06862        -0.006271     -0.015560     -0.000719
Pd     11.79137      8.93581      5.85272        -0.009681     -0.005600      0.006858
Pd     10.61174     11.33324      5.73689        -0.012459     -0.000242      0.006309
Ir     10.71511      9.86004     12.70611        -0.005017     -0.007510      0.005975
Ir     13.12766      9.22302      9.95334         0.018006     -0.008852     -0.022231
Ir     10.46373     12.31401     12.88675        -0.004256      0.008827      0.023894
Ir      7.76030     10.94067      9.06937        -0.002719      0.009852     -0.018581
Ir      9.55275     12.04836      7.95360        -0.001231     -0.000884      0.008988
Ir      7.99987      9.14803     10.74321         0.014418     -0.006202      0.028305
