9
# total energy = -73.87448611 eVC      2.68348      0.75588      7.50000         0.000000     -0.345294     -0.000000
C      2.68348      4.61108      7.50000         0.000000      0.345294      0.000000
C      4.61108      2.68348      7.50000         0.345294      0.000000     -0.000000
C      0.75588      2.68348      7.50000        -0.345294      0.000000      0.000000
C      3.97268      3.97268      7.50000         0.312476      0.312476      0.000000
C      1.39428      1.39428      7.50000        -0.312476     -0.312476      0.000000
C      1.39428      3.97268      7.50000        -0.312476      0.312476      0.000000
C      3.97268      1.39428      7.50000         0.312476     -0.312476      0.000000
Ir      0.00000      0.00000      7.50000         0.000000      0.000000      0.000000
