152
# total energy = -1060.09204983 eVH     10.35389      5.87395      7.64558        -0.280184      0.043699      1.126280
H     10.62451     15.10445      7.64558         0.086119     -0.087330      0.925153
H     10.62451      5.87395     13.33282        -0.259308      0.077485     -0.787166
H     10.35389     15.10445     13.33282         0.097751     -0.302305     -0.866276
H      7.64558     10.35389      5.87395         0.931209     -0.138640      0.188680
H      7.64558     10.62451     15.10445         0.327182     -0.034987     -0.072365
H     13.33282     10.62451      5.87395        -0.860510      0.195751      0.205254
H     13.33282     10.35389     15.10445        -0.278665     -0.014227     -0.068082
H      5.87395      7.64558     10.35389         0.088140      0.417047     -0.008757
H     15.10445      7.64558     10.62451        -0.005691      0.491466     -0.030315
H      5.87395     13.33282     10.62451        -0.014072     -0.960398      0.081200
H     15.10445     13.33282     10.35389        -0.087376     -0.320560      0.004340
H      5.87395     10.35389      7.64558         0.285166      0.110399      0.403998
H     15.10445     10.62451      7.64558        -0.123482     -0.171664      0.667117
H      5.87395     10.62451     13.33282        -0.082832      0.462624     -0.619783
H     15.10445     10.35389     13.33282         0.242126     -0.616627     -0.835600
H     10.35389      7.64558      5.87395        -0.040063      0.485772      0.335651
H     10.62451      7.64558     15.10445         0.267712      0.781343     -0.027961
H     10.62451     13.33282      5.87395         0.127201     -0.575497      0.209077
H     10.35389     13.33282     15.10445         0.039554     -0.288366     -0.146144
H      7.64558      5.87395     10.35389         0.348528      0.101741      0.033422
H      7.64558     15.10445     10.62451         0.380078     -0.119002      0.168584
H     13.33282      5.87395     10.62451        -0.315554      0.131032     -0.029318
H     13.33282     15.10445     10.35389        -0.653243     -0.128761      0.148692
H     12.45634     12.45634     19.01126         0.256076      0.271417     -0.228271
H     19.01126     19.01126     19.01126        -0.246701     -0.267868     -0.245275
H     19.01126     12.45634     12.45634        -0.250664      0.269905      0.235490
H     12.45634     19.01126     12.45634         0.290422     -0.235517      0.234814
C     10.35284      5.61067      6.59456         0.400258     -0.416117     -1.424157
C     10.62556     15.36773      6.59456        -0.156270      0.591989     -0.650499
C     10.62556      5.61067     14.38384         0.381654     -0.334671      0.829178
C     10.35284     15.36773     14.38384        -0.223008      0.226549      1.077044
C      6.59456     10.35284      5.61067        -1.376466      0.021754     -0.229332
C      6.59456     10.62556     15.36773        -0.643825      0.063530      0.364216
C     14.38384     10.62556      5.61067         1.308962     -0.169066     -0.634158
C     14.38384     10.35284     15.36773         0.354200     -0.125399      0.357479
C      5.61067      6.59456     10.35284        -0.285612     -0.652183     -0.022231
C     15.36773      6.59456     10.62556         0.420255     -0.955622      0.032714
C      5.61067     14.38384     10.62556        -0.138176      1.164165     -0.183446
C     15.36773     14.38384     10.35284         0.468327      0.654903     -0.027190
C      5.61067     10.35284      6.59456        -0.371883     -0.099467     -0.729917
C     15.36773     10.62556      6.59456         0.404779      0.117286     -0.727127
C      5.61067     10.62556     14.38384        -0.383382     -0.170722      1.231771
C     15.36773     10.35284     14.38384         0.261799      0.191581      1.455566
C     10.35284      6.59456      5.61067        -0.055663     -0.722621     -0.592700
C     10.62556      6.59456     15.36773        -0.113720     -0.904349      0.350559
C     10.62556     14.38384      5.61067        -0.476061      0.406983     -0.713673
C     10.35284     14.38384     15.36773        -0.159250      0.615901      0.424192
C      6.59456      5.61067     10.35284        -0.516575     -0.332960      0.023290
C      6.59456     15.36773     10.62556        -0.369532      0.445652      0.059211
C     14.38384      5.61067     10.62556         0.447853     -0.368687      0.001401
C     14.38384     15.36773     10.35284         1.119523      0.495782     -0.073711
C     10.40319      3.19606      7.29314        -0.001707      0.694758     -0.339167
C     10.35913      4.25547      6.23373         0.011681     -0.422351      0.290021
C      0.08601      7.29314      7.29314        -0.014339     -0.370127     -0.505587
C      0.13007      6.23373      6.23373        -0.067606      0.857124      0.067434
C      0.08601      3.19606      3.19606        -0.003377      0.682788      0.265710
C      0.13007      4.25547      4.25547         0.033928     -0.269851     -0.544743
C     10.40319      7.29314      3.19606        -0.066634     -1.150328      0.585869
C     10.35913      6.23373      4.25547        -0.039148      0.363506     -0.198722
C      7.29314     10.40319      3.19606        -1.083722     -0.056497      0.195438
C      6.23373     10.35913      4.25547         0.366761      0.086731     -0.541878
C      7.29314      0.08601      7.29314        -0.438523      0.032898     -0.514987
C      6.23373      0.13007      6.23373         0.183524      0.127132      0.127499
C      3.19606      0.08601      3.19606         0.693514      0.024370      0.166426
C      4.25547      0.13007      4.25547        -0.173664     -0.051568     -0.355426
C      3.19606     10.40319      7.29314         0.389537     -0.026097     -0.897461
C      4.25547     10.35913      6.23373        -0.151701     -0.075884      0.100698
C      3.19606      7.29314     10.40319         0.607340     -0.398168      0.002826
C      4.25547      6.23373     10.35913        -0.112562      0.182659      0.001302
C      7.29314      7.29314      0.08601        -0.412944     -0.313618     -0.014828
C      6.23373      6.23373      0.13007         0.178184      0.187259     -0.066636
C      3.19606      3.19606      0.08601         0.289477      0.480275     -0.024061
C      4.25547      4.25547      0.13007        -0.405415     -0.231382     -0.034855
C      7.29314      3.19606     10.40319        -0.278369      0.593626     -0.010632
C      6.23373      4.25547     10.35913         0.005356     -0.110101      0.020019
O     10.43466      3.58206      8.50569        -0.028117      0.090751      0.318295
O     10.54374     17.39634      8.50569         0.061988     -0.128510      0.592320
O     10.54374      3.58206     12.47271         0.028022      0.106198     -0.393123
O     10.43466     17.39634     12.47271         0.090531     -0.047858     -0.391453
O      8.50569     10.43466      3.58206         0.709698     -0.062327      0.011963
O      8.50569     10.54374     17.39634         0.488336      0.058022     -0.081005
O     12.47271     10.54374      3.58206        -0.648163      0.116638      0.204865
O     12.47271     10.43466     17.39634        -0.284943     -0.003668      0.023626
O      3.58206      8.50569     10.43466         0.039478      0.460007     -0.068493
O     17.39634      8.50569     10.54374        -0.058730      0.451514      0.056892
O      3.58206     12.47271     10.54374         0.114340     -0.583247      0.001751
O     17.39634     12.47271     10.43466        -0.173473     -0.743520     -0.055542
O      3.58206     10.43466      8.50569         0.210740     -0.061326      0.786704
O     17.39634     10.54374      8.50569        -0.096263      0.075720      0.548940
O      3.58206     10.54374     12.47271        -0.000978     -0.002756     -0.267814
O     17.39634     10.43466     12.47271         0.037544     -0.012231     -0.227954
O     10.43466      8.50569      3.58206        -0.104698      0.567240     -0.114265
O     10.54374      8.50569     17.39634         0.067668      0.506168     -0.087137
O     10.54374     12.47271      3.58206         0.104611     -0.625582      0.133120
O     10.43466     12.47271     17.39634        -0.059934     -0.660481     -0.258403
O      8.50569      3.58206     10.43466         0.394702      0.025841     -0.037236
O      8.50569     17.39634     10.54374         0.631519     -0.155187      0.047443
O     12.47271      3.58206     10.54374        -0.508482      0.126512      0.034994
O     12.47271     17.39634     10.43466        -0.622435     -0.131553      0.040677
O     11.90042     11.90042     19.56718        -0.274055     -0.306901      0.232450
O     19.56718     19.56718     19.56718         0.304005      0.318587      0.299360
O     19.56718     11.90042     11.90042         0.284669     -0.324601     -0.232464
O     11.90042     19.56718     11.90042        -0.316067      0.229290     -0.202834
O      9.45224      1.03696      9.45224        -0.083938      0.086637     -0.068280
O      1.03696      9.45224      9.45224         0.103531     -0.117269     -0.048073
O      1.03696      1.03696      1.03696         0.083893      0.056407      0.096922
O      9.45224      9.45224      1.03696        -0.061025     -0.131849      0.131085
Zr     10.48920      2.52580     10.48920         0.032421     -0.090509      0.083991
Zr     10.48920     18.45260     10.48920        -0.172505      0.259856     -0.346455
Zr     10.48920     10.48920      2.52580         0.119770      0.355259     -0.346014
Zr     10.48920     10.48920     18.45260        -0.083124     -0.210240      0.192993
Zr      2.52580     10.48920     10.48920        -0.254708      0.128501      0.232196
Zr     18.45260     10.48920     10.48920         0.223911     -0.117438     -0.004375
Pd      9.39709     14.27094      9.34941        -0.002745      0.036574     -0.039561
Pd      8.61361     13.69278     12.99359        -0.014058     -0.020910      0.032094
Pd     12.03916     14.41358      8.73983         0.010973     -0.012486      0.004240
Pd     12.76274     12.82155     10.63519        -0.028604      0.006162      0.035550
Pd     12.14552      7.11719     12.61829        -0.003016      0.004647      0.001438
Pd     11.20741     14.84244     11.49715        -0.019754      0.036383     -0.027285
Pd     10.07060     12.50703     11.10884        -0.044146      0.050177     -0.036595
Pd     13.48429     12.13649      7.98168         0.013376      0.013261      0.004314
Pd     11.48169     11.55854      6.11199         0.007692      0.005349     -0.004713
Pd      7.86180      8.54514      7.54145         0.013649     -0.046296     -0.006856
Pd      8.73576     11.73296      6.88238        -0.009609      0.012807     -0.015730
Pd     10.30838      9.46560      8.14534        -0.011354     -0.005907      0.001989
Pd      8.50714     14.43828      6.83551        -0.011335      0.014810     -0.030010
Pd     12.36639      9.03514      6.58661        -0.000665      0.007995      0.012223
Pd      9.74433      9.61099      5.55393        -0.000535      0.006398      0.002828
Pd      6.86420      9.45728     12.18496        -0.001709     -0.000667     -0.003313
Pd     12.20897      6.69395      7.87889        -0.001011      0.012624      0.018355
Pd      5.94767     10.45967      9.72530        -0.011944     -0.007201     -0.002364
Pd      7.57586      7.14463     13.27914        -0.003906      0.024500      0.045962
Ir     11.79010      9.70260     13.05874        -0.039934     -0.001610      0.005473
Ir     13.57549      8.99796     11.44781        -0.015655      0.024846      0.005912
Ir      9.42378      8.82880     13.90603        -0.013921      0.006956      0.064561
Ir     10.55700     10.91792     14.88635        -0.018620     -0.018169      0.044148
Ir      7.28621     12.02404     11.36753        -0.011037     -0.013143     -0.009701
Ir     14.68883     10.84539     10.10652        -0.025043      0.028508      0.045601
Ir     12.19849     10.49130      9.65628         0.012705      0.008203     -0.014935
Ir      8.78496     11.03323     13.01238         0.024906     -0.004701     -0.016779
Ir     10.14150      9.86622     11.20832        -0.010636      0.027622     -0.045113
Ir     13.75472     11.36693     12.42316        -0.042578      0.007228      0.048606
Ir     11.63132     12.29254     13.10855        -0.089444     -0.014205     -0.000432
Ir      8.52813     11.07728      9.37828        -0.023490      0.020784     -0.023223
Ir     11.59849      7.97815     10.07493         0.005319      0.013577      0.015321
Ir      7.24335     13.00789      8.70000         0.009921      0.018927      0.002351
Ir      9.51991      7.00003      9.12010         0.005511     -0.006758      0.043051
Ir      8.06750      8.74886     10.09787        -0.006024      0.008498     -0.012654
Ir     10.75840     12.09692      8.53471        -0.010348      0.011581     -0.020714
Ir      9.56443      7.46464     11.67443        -0.013925      0.063562      0.036375
Ir     13.69930      8.70791      8.80735         0.004560      0.018683      0.024736
