152
# total energy = -1110.10334054 eVH     10.35389      5.87395      7.64558        -0.374235     -0.388202      1.161728
H     10.62451     15.10445      7.64558         0.424993      0.082527      0.959066
H     10.62451      5.87395     13.33282        -0.187647     -1.067913     -1.626457
H     10.35389     15.10445     13.33282        -0.617175      0.382224     -0.463837
H      7.64558     10.35389      5.87395         0.488295     -0.570284     -0.019481
H      7.64558     10.62451     15.10445         0.328177     -0.271028      0.050064
H     13.33282     10.62451      5.87395        -0.408972      0.412455      0.009410
H     13.33282     10.35389     15.10445        -0.474811      0.317136      0.108521
H      5.87395      7.64558     10.35389         0.081562      0.394580      0.033699
H     15.10445      7.64558     10.62451         0.373441      0.403749      0.186529
H      5.87395     13.33282     10.62451        -0.272040     -0.415485      0.399475
H     15.10445     13.33282     10.35389         0.043117     -0.374802     -0.415890
H      5.87395     10.35389      7.64558        -0.084296     -0.271020      1.537793
H     15.10445     10.62451      7.64558         0.150085      0.149310      1.019465
H      5.87395     10.62451     13.33282        -0.092474     -0.309930     -1.095506
H     15.10445     10.35389     13.33282         0.288119      0.538845     -1.217822
H     10.35389      7.64558      5.87395        -0.475895      0.543234     -0.295732
H     10.62451      7.64558     15.10445        -0.062766      0.716908      0.286066
H     10.62451     13.33282      5.87395         0.901381     -1.385637     -0.334601
H     10.35389     13.33282     15.10445         0.307294     -0.520562     -0.011058
H      7.64558      5.87395     10.35389         0.885747      0.127469     -0.132780
H      7.64558     15.10445     10.62451         2.041423      0.821495      0.249650
H     13.33282      5.87395     10.62451        -2.454323     -0.967571     -0.138484
H     13.33282     15.10445     10.35389        -0.843059     -0.033769     -0.247621
H     12.45634     12.45634     19.01126         0.270399      0.256654     -0.231183
H     19.01126     19.01126     19.01126        -0.267577     -0.251760     -0.238924
H     19.01126     12.45634     12.45634        -0.279101      0.285289      0.188660
H     12.45634     19.01126     12.45634         0.257979     -0.252133      0.236910
C     10.35284      5.61067      6.59456         0.169879     -0.405489     -1.566866
C     10.62556     15.36773      6.59456         0.133344      0.671585     -0.862649
C     10.62556      5.61067     14.38384         0.070246     -0.290209      2.052028
C     10.35284     15.36773     14.38384         0.161902      0.255297      1.815781
C      6.59456     10.35284      5.61067        -1.168452     -0.166397     -0.938295
C      6.59456     10.62556     15.36773        -0.611256     -0.134439      0.666030
C     14.38384     10.62556      5.61067         0.719071     -0.136227     -0.793023
C     14.38384     10.35284     15.36773         1.119450      0.139088      0.913834
C      5.61067      6.59456     10.35284        -0.840151     -0.696541     -0.140792
C     15.36773      6.59456     10.62556         1.943049      0.025196     -0.077424
C      5.61067     14.38384     10.62556        -1.566297      0.141029     -0.015614
C     15.36773     14.38384     10.35284         0.456285      0.141251      0.033595
C      5.61067     10.35284      6.59456        -0.338363      0.257825     -1.628049
C     15.36773     10.62556      6.59456         0.293642     -0.016524     -0.929228
C      5.61067     10.62556     14.38384        -0.359095      0.268017      1.463849
C     15.36773     10.35284     14.38384         0.144613     -0.328180      1.649588
C     10.35284      6.59456      5.61067        -0.252687     -1.220663     -0.936407
C     10.62556      6.59456     15.36773        -0.052365     -1.038623      1.166169
C     10.62556     14.38384      5.61067        -0.434744      2.063121     -0.748460
C     10.35284     14.38384     15.36773        -0.275767      1.586651      0.382874
C      6.59456      5.61067     10.35284        -1.016701     -0.353857      0.067175
C      6.59456     15.36773     10.62556        -1.502617      0.310236     -0.342341
C     14.38384      5.61067     10.62556         1.305686     -0.542910     -0.030358
C     14.38384     15.36773     10.35284         0.346576      0.260388      0.045183
C     10.40319      3.19606      7.29314         0.021503      0.295115     -0.117846
C     10.35913      4.25547      6.23373         0.120342     -0.428881      0.172198
C      0.08601      7.29314      7.29314        -0.053367     -0.341888     -0.435763
C      0.13007      6.23373      6.23373        -0.157525      0.836795      0.038118
C      0.08601      3.19606      3.19606        -0.116800      1.507823      0.167416
C      0.13007      4.25547      4.25547        -0.128864     -0.392575     -1.366517
C     10.40319      7.29314      3.19606         0.035209     -0.462241      0.101395
C     10.35913      6.23373      4.25547         0.236063      0.145310     -0.399589
C      7.29314     10.40319      3.19606        -1.684442      0.024203      0.256530
C      6.23373     10.35913      4.25547         0.536394      0.049864     -0.530048
C      7.29314      0.08601      7.29314        -0.376668      0.006166     -0.271200
C      6.23373      0.13007      6.23373         0.414840     -0.004518      0.343292
C      3.19606      0.08601      3.19606         0.649868      0.003939      0.283961
C      4.25547      0.13007      4.25547        -0.404663     -0.005185     -0.422776
C      3.19606     10.40319      7.29314         0.387859      0.044791     -0.379851
C      4.25547     10.35913      6.23373        -0.663337      0.077552      0.412060
C      3.19606      7.29314     10.40319         0.352029     -0.300821     -0.004967
C      4.25547      6.23373     10.35913         0.025738      0.658739      0.105144
C      7.29314      7.29314      0.08601        -0.687890     -0.468648     -0.021853
C      6.23373      6.23373      0.13007         0.366942      1.257275     -0.031065
C      3.19606      3.19606      0.08601         0.788679      0.432759      0.001228
C      4.25547      4.25547      0.13007        -0.393847     -1.508215     -0.089268
C      7.29314      3.19606     10.40319        -0.350087      0.288585      0.003401
C      6.23373      4.25547     10.35913         0.585520     -0.138021      0.242882
O     10.43466      3.58206      8.50569        -0.044594      0.192006      0.281808
O     10.54374     17.39634      8.50569         0.043657     -0.220285      0.480682
O     10.54374      3.58206     12.47271         0.093915     -0.012980     -0.084252
O     10.43466     17.39634     12.47271        -0.035415     -0.105797     -0.240464
O      8.50569     10.43466      3.58206         0.910245      0.181479      0.394317
O      8.50569     10.54374     17.39634         0.552802      0.075389     -0.213837
O     12.47271     10.54374      3.58206        -0.509751     -0.022983      0.190909
O     12.47271     10.43466     17.39634        -0.528107     -0.069856     -0.191844
O      3.58206      8.50569     10.43466         0.167086      0.493979     -0.041503
O     17.39634      8.50569     10.54374        -0.193623      0.666373      0.043694
O      3.58206     12.47271     10.54374         0.150980     -0.619224      0.025865
O     17.39634     12.47271     10.43466        -0.175578     -0.500740     -0.017449
O      3.58206     10.43466      8.50569         0.215930     -0.076523      0.431533
O     17.39634     10.54374      8.50569        -0.161753      0.031753      0.422835
O      3.58206     10.54374     12.47271         0.140240      0.005862     -0.365683
O     17.39634     10.43466     12.47271         0.069640     -0.065843     -0.080648
O     10.43466      8.50569      3.58206         0.004718      0.351983      0.186150
O     10.54374      8.50569     17.39634         0.072576      0.454043     -0.197972
O     10.54374     12.47271      3.58206        -0.220718     -0.898651      0.350078
O     10.43466     12.47271     17.39634        -0.080085     -0.431432     -0.236578
O      8.50569      3.58206     10.43466         0.510622      0.195542     -0.017691
O      8.50569     17.39634     10.54374         0.621094     -0.193875      0.033861
O     12.47271      3.58206     10.54374        -0.713412      0.280538      0.041114
O     12.47271     17.39634     10.43466        -0.472554     -0.187214     -0.039693
O     11.90042     11.90042     19.56718        -0.334879     -0.304085      0.263175
O     19.56718     19.56718     19.56718         0.331403      0.305000      0.285253
O     19.56718     11.90042     11.90042         0.281390     -0.291742     -0.137182
O     11.90042     19.56718     11.90042        -0.316685      0.295365     -0.235774
O      9.45224      1.03696      9.45224        -0.048307      0.072080     -0.041414
O      1.03696      9.45224      9.45224         0.038625     -0.069762     -0.067938
O      1.03696      1.03696      1.03696         0.039701      0.115240      0.127284
O      9.45224      9.45224      1.03696        -0.104894     -0.067393      0.138069
Zr     10.48920      2.52580     10.48920         0.091728     -0.153834     -0.159494
Zr     10.48920     18.45260     10.48920        -0.054184      0.169094     -0.034495
Zr     10.48920     10.48920      2.52580         0.374806     -0.273916     -0.234140
Zr     10.48920     10.48920     18.45260        -0.021181     -0.064749      0.194274
Zr      2.52580     10.48920     10.48920        -0.054729      0.125985     -0.042327
Zr     18.45260     10.48920     10.48920         0.106872     -0.106545     -0.281871
Ir     12.02784     12.42887     10.44152        -0.008478      0.046033      0.039603
Ir     10.87883      7.36640     10.41421         0.068137      0.023334     -0.014429
Ir      8.53176      7.47014     11.65922         0.072180     -0.020250     -0.013968
Ir      7.40574     11.76231      7.67020         0.020388     -0.021397     -0.021590
Ir     11.51028     12.08121      7.13919         0.030525      0.003973     -0.007751
Ir     13.47612      8.87058      7.56460         0.073395      0.029009     -0.004258
Ir     12.50595     13.89765      8.42664         0.010103      0.023938     -0.004703
Ir      9.58411     11.31490      5.61159         0.042660     -0.018387     -0.011050
Ir      9.06441     13.52700      7.07943         0.006631     -0.011507     -0.009385
Ir      9.14195      9.68876      7.59278         0.057032     -0.005911     -0.007426
Ir     13.03585      7.05820     11.92718         0.046825     -0.027118      0.009206
Ir     13.23816      6.93688      9.12046         0.090616      0.004614      0.010557
Ir     10.77618      7.59641     12.93194         0.067849      0.001591     -0.021120
Ir     13.54525     11.45022      8.71345         0.038287      0.028196      0.013609
Ir     11.34119      9.67584      6.25542         0.047879      0.000685     -0.004802
Ir      6.92454      9.35084      9.02516         0.058848     -0.022255     -0.028288
Ir     14.07591     11.34010     11.52884        -0.018057      0.002944      0.083242
Ir     11.48075      9.89463      8.93570         0.026144      0.007615     -0.004287
Ir      9.22570      9.57946     10.27996         0.088659      0.007775     -0.015847
Ir     13.66038      9.27188     10.16050         0.072536      0.022103      0.004183
Ir     13.64749      9.18373     12.86953         0.065330     -0.044810      0.056628
Ir     11.48927      9.69629     11.58462         0.049224      0.026168     -0.012062
Ir      9.81093     11.82532      9.00876         0.047293     -0.062443     -0.020366
Ir      8.72196      7.48871      8.91942         0.069907     -0.008109     -0.009656
Ir     11.14085      7.63286      7.90119         0.063947     -0.004522     -0.036359
Ir      9.07780      9.56959     13.03591         0.057671     -0.000147      0.001396
Ir      7.55944     14.03244      8.99986        -0.007727     -0.022304     -0.013189
Ir     10.96525     14.06284     11.99405         0.015072      0.021811     -0.046555
Ir     10.15179     14.22440      9.55984        -0.001628      0.007856     -0.015752
Ir      9.74803     11.72586     11.72319         0.044495      0.000666     -0.006989
Ir      7.50793     11.72912     10.25009         0.028003     -0.018784     -0.036412
Ir      8.42655     13.85915     11.63797        -0.005162     -0.005992     -0.030007
Ir      7.49772     11.78093     12.90176         0.009334     -0.040802     -0.029874
Ir      9.77692     11.67927     14.32423        -0.016816     -0.001842      0.009587
Ir     13.53545     13.78259     12.14922        -0.005078      0.011777      0.020701
Ir     12.03832     11.94138     13.04482        -0.030984      0.085972      0.010820
Ir     11.46589      9.77814     14.23356         0.031958      0.020056     -0.006412
Ir      6.94885      9.59044     11.57087         0.049039     -0.033136     -0.016784
