26
# total energy = -205.61056725 eVC      0.70355      1.25203      7.50000        -0.006580      0.002691      0.000000
C     10.79679      6.56675      7.50000        -0.007401     -0.003331     -0.000000
C      0.73798     11.42806      7.50000         0.002829      0.006777      0.000000
C     11.53060      5.33339      7.50000         0.006580     -0.002691      0.000000
C      1.43736      0.01867      7.50000         0.007401      0.003331     -0.000000
C     11.49617     -4.84264      7.50000        -0.002829     -0.006777      0.000000
C     10.79586     -3.64884      7.50000         0.000495      0.005578      0.000000
C     10.85612      4.12462      7.50000        -0.002058      0.003529     -0.000000
C      2.82627      0.04391      7.50000        -0.021145     -0.008103      0.000000
C      1.43829     10.23427      7.50000        -0.000495     -0.005578      0.000000
C      1.37803      2.46080      7.50000         0.002058     -0.003529     -0.000000
C      9.40788      6.54151      7.50000         0.021145      0.008103      0.000000
N      7.76359      0.26059      7.50000        -0.006349      0.002431      0.000000
N      4.47056      6.32483      7.50000         0.006349     -0.002431      0.000000
N      4.00856      0.08346      7.50000         0.011828     -0.002447      0.000000
N     10.23052     -2.60924      7.50000         0.000034     -0.004464      0.000000
N     10.29615      3.08226      7.50000         0.000908     -0.002780      0.000000
N      8.22559      6.50196      7.50000        -0.011828      0.002447     -0.000000
N      2.00363      9.19466      7.50000        -0.000034      0.004464      0.000000
N      1.93800      3.50316      7.50000        -0.000908      0.002780     -0.000000
Ir      2.99304      7.53243      7.50000         0.003025     -0.007995     -0.000000
Ir      2.98143      5.13096      7.50000         0.007674      0.003693     -0.000000
Ir      6.29775      6.40892      7.50000         0.013871     -0.003328      0.000000
Ir      9.24111     -0.94701      7.50000        -0.003025      0.007995     -0.000000
Ir      9.25272      1.45447      7.50000        -0.007674     -0.003693     -0.000000
Ir      5.93640      0.17650      7.50000        -0.013871      0.003328      0.000000
