152
# total energy = -1060.15198594 eVH     10.35389      5.87395      7.64558        -0.318135      0.100916      1.089089
H     10.62451     15.10445      7.64558         0.077469     -0.067988      0.897563
H     10.62451      5.87395     13.33282        -0.270668      0.073202     -0.783173
H     10.35389     15.10445     13.33282         0.094149     -0.302583     -0.823668
H      7.64558     10.35389      5.87395         0.893448     -0.201635      0.206607
H      7.64558     10.62451     15.10445         0.316126     -0.027701     -0.060896
H     13.33282     10.62451      5.87395        -0.886780      0.220524      0.222776
H     13.33282     10.35389     15.10445        -0.282853     -0.029134     -0.060179
H      5.87395      7.64558     10.35389         0.092270      0.423343     -0.011122
H     15.10445      7.64558     10.62451        -0.041630      0.437026     -0.032889
H      5.87395     13.33282     10.62451        -0.017943     -0.967236      0.077505
H     15.10445     13.33282     10.35389        -0.082468     -0.326926      0.001599
H      5.87395     10.35389      7.64558         0.317472      0.062782      0.371645
H     15.10445     10.62451      7.64558        -0.120089     -0.158417      0.667868
H      5.87395     10.62451     13.33282        -0.064250      0.454663     -0.601280
H     15.10445     10.35389     13.33282         0.229472     -0.640374     -0.876457
H     10.35389      7.64558      5.87395        -0.022624      0.501288      0.345761
H     10.62451      7.64558     15.10445         0.330297      0.788544     -0.004969
H     10.62451     13.33282      5.87395         0.152695     -0.567302      0.201589
H     10.35389     13.33282     15.10445         0.031553     -0.288222     -0.166321
H      7.64558      5.87395     10.35389         0.369458      0.113428      0.064424
H      7.64558     15.10445     10.62451         0.387991     -0.127438      0.177642
H     13.33282      5.87395     10.62451        -0.307377      0.138176     -0.013842
H     13.33282     15.10445     10.35389        -0.660075     -0.104412      0.135555
H     12.45634     12.45634     19.01126         0.258669      0.272960     -0.225847
H     19.01126     19.01126     19.01126        -0.248224     -0.266874     -0.244048
H     19.01126     12.45634     12.45634        -0.249514      0.272219      0.237394
H     12.45634     19.01126     12.45634         0.289545     -0.234659      0.235582
C     10.35284      5.61067      6.59456         0.401760     -0.420081     -1.359136
C     10.62556     15.36773      6.59456        -0.169618      0.609217     -0.661035
C     10.62556      5.61067     14.38384         0.365149     -0.274208      0.777902
C     10.35284     15.36773     14.38384        -0.206794      0.218436      1.028899
C      6.59456     10.35284      5.61067        -1.397241      0.032574     -0.229264
C      6.59456     10.62556     15.36773        -0.667805      0.066425      0.358438
C     14.38384     10.62556      5.61067         1.307106     -0.185873     -0.629359
C     14.38384     10.35284     15.36773         0.317568     -0.131181      0.352006
C      5.61067      6.59456     10.35284        -0.275013     -0.674329     -0.030045
C     15.36773      6.59456     10.62556         0.408083     -0.857263      0.030614
C      5.61067     14.38384     10.62556        -0.150232      1.197084     -0.217812
C     15.36773     14.38384     10.35284         0.505647      0.706773     -0.036026
C      5.61067     10.35284      6.59456        -0.372599     -0.102237     -0.776697
C     15.36773     10.62556      6.59456         0.403157      0.107205     -0.682065
C      5.61067     10.62556     14.38384        -0.409311     -0.163696      1.220436
C     15.36773     10.35284     14.38384         0.231317      0.226905      1.417419
C     10.35284      6.59456      5.61067        -0.069844     -0.747069     -0.549549
C     10.62556      6.59456     15.36773        -0.141621     -0.978618      0.376554
C     10.62556     14.38384      5.61067        -0.493378      0.382155     -0.739682
C     10.35284     14.38384     15.36773        -0.174596      0.742693      0.494357
C      6.59456      5.61067     10.35284        -0.564831     -0.337982      0.003856
C      6.59456     15.36773     10.62556        -0.368055      0.448102      0.065725
C     14.38384      5.61067     10.62556         0.433319     -0.307995      0.008755
C     14.38384     15.36773     10.35284         1.130909      0.488993     -0.077263
C     10.40319      3.19606      7.29314        -0.007913      0.782398     -0.335077
C     10.35913      4.25547      6.23373         0.023202     -0.379037      0.290561
C      0.08601      7.29314      7.29314        -0.018817     -0.378955     -0.505070
C      0.13007      6.23373      6.23373        -0.046839      0.882167      0.093553
C      0.08601      3.19606      3.19606        -0.007461      0.696466      0.260824
C      0.13007      4.25547      4.25547         0.045075     -0.265801     -0.546357
C     10.40319      7.29314      3.19606        -0.064807     -1.116277      0.619203
C     10.35913      6.23373      4.25547        -0.047148      0.347799     -0.203217
C      7.29314     10.40319      3.19606        -1.095239     -0.054451      0.200724
C      6.23373     10.35913      4.25547         0.379983      0.102016     -0.522323
C      7.29314      0.08601      7.29314        -0.476250      0.030112     -0.443639
C      6.23373      0.13007      6.23373         0.179714      0.123020      0.121242
C      3.19606      0.08601      3.19606         0.703140      0.024382      0.170487
C      4.25547      0.13007      4.25547        -0.172186     -0.049244     -0.366688
C      3.19606     10.40319      7.29314         0.371155     -0.026100     -0.950500
C      4.25547     10.35913      6.23373        -0.130180     -0.054281      0.114215
C      3.19606      7.29314     10.40319         0.613902     -0.397917      0.002893
C      4.25547      6.23373     10.35913        -0.115711      0.179025      0.012041
C      7.29314      7.29314      0.08601        -0.428465     -0.293537     -0.015002
C      6.23373      6.23373      0.13007         0.148566      0.154841     -0.059760
C      3.19606      3.19606      0.08601         0.292697      0.492668     -0.024341
C      4.25547      4.25547      0.13007        -0.401736     -0.238725     -0.030289
C      7.29314      3.19606     10.40319        -0.284053      0.594088     -0.009339
C      6.23373      4.25547     10.35913         0.017292     -0.091808      0.015797
O     10.43466      3.58206      8.50569        -0.026836      0.073743      0.303827
O     10.54374     17.39634      8.50569         0.063730     -0.122970      0.593616
O     10.54374      3.58206     12.47271         0.028784      0.102328     -0.397547
O     10.43466     17.39634     12.47271         0.093865     -0.062378     -0.432953
O      8.50569     10.43466      3.58206         0.736066     -0.071976      0.016708
O      8.50569     10.54374     17.39634         0.532120      0.062659     -0.102740
O     12.47271     10.54374      3.58206        -0.658086      0.112769      0.211743
O     12.47271     10.43466     17.39634        -0.281754      0.004933      0.036064
O      3.58206      8.50569     10.43466         0.033703      0.445090     -0.062854
O     17.39634      8.50569     10.54374        -0.055259      0.447829      0.056906
O      3.58206     12.47271     10.54374         0.103642     -0.587688      0.004672
O     17.39634     12.47271     10.43466        -0.183074     -0.740754     -0.048639
O      3.58206     10.43466      8.50569         0.207660     -0.060672      0.807070
O     17.39634     10.54374      8.50569        -0.074170      0.072238      0.494828
O      3.58206     10.54374     12.47271        -0.004678     -0.004046     -0.260703
O     17.39634     10.43466     12.47271         0.033462     -0.009450     -0.231915
O     10.43466      8.50569      3.58206        -0.107503      0.534174     -0.100521
O     10.54374      8.50569     17.39634         0.059437      0.511772     -0.084167
O     10.54374     12.47271      3.58206         0.102622     -0.638574      0.130167
O     10.43466     12.47271     17.39634        -0.065727     -0.692478     -0.277109
O      8.50569      3.58206     10.43466         0.396469      0.023748     -0.045489
O      8.50569     17.39634     10.54374         0.639697     -0.153673      0.047079
O     12.47271      3.58206     10.54374        -0.516697      0.121919      0.029331
O     12.47271     17.39634     10.43466        -0.624238     -0.124206      0.041382
O     11.90042     11.90042     19.56718        -0.278934     -0.303414      0.223373
O     19.56718     19.56718     19.56718         0.309332      0.323142      0.298818
O     19.56718     11.90042     11.90042         0.283353     -0.324666     -0.234843
O     11.90042     19.56718     11.90042        -0.314858      0.230063     -0.200674
O      9.45224      1.03696      9.45224        -0.075145      0.088325     -0.078591
O      1.03696      9.45224      9.45224         0.100939     -0.108486     -0.060450
O      1.03696      1.03696      1.03696         0.078720      0.054646      0.099254
O      9.45224      9.45224      1.03696        -0.058872     -0.124849      0.137318
Zr     10.48920      2.52580     10.48920         0.042638     -0.093704      0.121865
Zr     10.48920     18.45260     10.48920        -0.182340      0.247348     -0.360837
Zr     10.48920     10.48920      2.52580         0.111588      0.358891     -0.346453
Zr     10.48920     10.48920     18.45260        -0.081241     -0.260513      0.234493
Zr      2.52580     10.48920     10.48920        -0.241400      0.131055      0.244598
Zr     18.45260     10.48920     10.48920         0.197910     -0.137075     -0.020582
Pd      9.35989     14.29779      9.31433        -0.001621      0.004258      0.004713
Pd      8.59103     13.64480     13.04023        -0.004360     -0.013541     -0.001170
Pd     12.02262     14.40391      8.74363         0.000605      0.003555      0.000900
Pd     12.75973     12.87931     10.68169         0.003448     -0.001277     -0.007009
Pd     12.11903      7.19243     12.67632        -0.002032      0.006699     -0.000873
Pd     11.15811     14.90158     11.45371         0.004020     -0.000277      0.002769
Pd     10.03835     12.55118     11.08757         0.005620     -0.015468      0.010843
Pd     13.47894     12.15315      7.98312        -0.003771     -0.000249     -0.000042
Pd     11.47935     11.54235      6.10859         0.001474     -0.001766     -0.003882
Pd      7.94191      8.38094      7.52401        -0.002525      0.002969     -0.006689
Pd      8.72003     11.75681      6.84460        -0.001154     -0.001914     -0.008353
Pd     10.32224      9.45203      8.15037         0.012691      0.006571     -0.004836
Pd      8.49728     14.46375      6.79179         0.001206      0.001190      0.004623
Pd     12.39629      9.01672      6.56539         0.002809     -0.001968     -0.002147
Pd      9.71708      9.60961      5.57330        -0.002478     -0.000899     -0.003597
Pd      6.81692      9.45373     12.14112         0.002561      0.001770     -0.014296
Pd     12.17748      6.74414      7.95333        -0.001625     -0.003911     -0.004542
Pd      5.91349     10.48418      9.69352         0.003329      0.001162     -0.004978
Pd      7.55085      7.24093     13.40914         0.003067      0.005042      0.003924
Ir     11.73565      9.77564     13.06626        -0.000518     -0.012732      0.011562
Ir     13.55124      9.05541     11.47457        -0.010642      0.016955      0.007386
Ir      9.42555      8.86681     14.00955        -0.013247     -0.043761      0.025899
Ir     10.50824     11.01819     14.88930         0.000164     -0.033097      0.054023
Ir      7.27059     12.01626     11.33951         0.025272     -0.020703      0.027653
Ir     14.64984     10.91121     10.14951        -0.030829      0.015421      0.047155
Ir     12.16146     10.57253      9.68048        -0.018303      0.030861     -0.007543
Ir      8.74911     11.00160     12.99246        -0.028785      0.065785     -0.056402
Ir     10.10513      9.91676     11.17470        -0.009061      0.011586     -0.033859
Ir     13.73793     11.41776     12.48952        -0.024500     -0.003411      0.014148
Ir     11.59159     12.35339     13.09001        -0.059929     -0.005563      0.012533
Ir      8.49759     11.09695      9.33456         0.002149     -0.019557      0.010560
Ir     11.59105      8.02753     10.14337         0.008162      0.001035      0.020567
Ir      7.21653     13.03015      8.65463        -0.023631      0.022558      0.012520
Ir      9.54716      6.96296      9.23918         0.005719     -0.012862     -0.005059
Ir      8.05210      8.76251     10.05830        -0.003516      0.042919      0.013193
Ir     10.71935     12.12328      8.50181         0.009572     -0.013129      0.020088
Ir      9.51281      7.57215     11.75578         0.002848     -0.003687      0.004766
Ir     13.66310      8.80178      8.84059         0.033905     -0.012711      0.004529
