152
# total energy = -1022.86240754 eVH     10.35389      5.87395      7.64558         0.480543      0.031496      0.900394
H     10.62451     15.10445      7.64558        -0.049548      0.043533      0.775730
H     10.62451      5.87395     13.33282         0.145212      0.116052     -0.607310
H     10.35389     15.10445     13.33282        -0.260838     -0.079367     -0.563294
H      7.64558     10.35389      5.87395         0.331804     -0.035484      0.190140
H      7.64558     10.62451     15.10445         0.617096     -0.191391     -0.142802
H     13.33282     10.62451      5.87395        -0.850848     -0.313538      0.169266
H     13.33282     10.35389     15.10445        -0.452377     -0.081840     -0.067853
H      5.87395      7.64558     10.35389         0.129303      1.123143     -0.155167
H     15.10445      7.64558     10.62451        -0.169798      0.404480     -0.087392
H      5.87395     13.33282     10.62451         0.143192     -0.406646     -0.071965
H     15.10445     13.33282     10.35389        -0.079132     -0.970350     -0.183503
H      5.87395     10.35389      7.64558         0.128130      0.040152      0.480273
H     15.10445     10.62451      7.64558         0.122205     -0.207081      0.823561
H      5.87395     10.62451     13.33282         0.267667     -0.028284     -0.394126
H     15.10445     10.35389     13.33282        -0.151644      0.014677     -0.614409
H     10.35389      7.64558      5.87395         0.065648      0.851741      0.119422
H     10.62451      7.64558     15.10445         0.023419      0.562401     -0.143790
H     10.62451     13.33282      5.87395         0.059580     -0.601953      0.182462
H     10.35389     13.33282     15.10445        -0.253061     -0.890183     -0.108759
H      7.64558      5.87395     10.35389         0.524387      0.043050     -0.131521
H      7.64558     15.10445     10.62451         0.915422     -0.208481      0.287197
H     13.33282      5.87395     10.62451        -0.437095      0.186884     -0.058976
H     13.33282     15.10445     10.35389        -0.986011     -0.102560      0.256975
H     12.45634     12.45634     19.01126         0.266857      0.257427     -0.225011
H     19.01126     19.01126     19.01126        -0.247376     -0.235030     -0.262347
H     19.01126     12.45634     12.45634        -0.240666      0.270332      0.239125
H     12.45634     19.01126     12.45634         0.211553     -0.282677      0.252581
C     10.35284      5.61067      6.59456        -0.128349     -0.434580     -0.392871
C     10.62556     15.36773      6.59456         0.023057      0.345423     -1.161783
C     10.62556      5.61067     14.38384        -0.029634     -0.221707      0.727817
C     10.35284     15.36773     14.38384         0.176953      0.775195      0.157203
C      6.59456     10.35284      5.61067        -0.412049     -0.040045     -0.180416
C      6.59456     10.62556     15.36773        -0.785841      0.151824      0.349637
C     14.38384     10.62556      5.61067         0.613545      0.285873     -0.371279
C     14.38384     10.35284     15.36773         0.726336     -0.119159      0.423216
C      5.61067      6.59456     10.35284        -0.426255     -0.750228      0.283409
C     15.36773      6.59456     10.62556         0.197278     -0.468049      0.047261
C      5.61067     14.38384     10.62556        -0.253740      0.376074     -0.024524
C     15.36773     14.38384     10.35284         0.398078      0.138267      0.181427
C      5.61067     10.35284      6.59456        -0.309293     -0.014315     -0.889164
C     15.36773     10.62556      6.59456         0.574055     -0.159872     -1.235908
C      5.61067     10.62556     14.38384        -0.457166      0.008022      0.886892
C     15.36773     10.35284     14.38384         0.520518     -0.177014      1.241677
C     10.35284      6.59456      5.61067        -0.040265     -0.903569     -0.667831
C     10.62556      6.59456     15.36773         0.045786     -0.672774      0.295865
C     10.62556     14.38384      5.61067         0.045101      1.240716     -0.687783
C     10.35284     14.38384     15.36773         0.105179      0.603127      0.655545
C      6.59456      5.61067     10.35284        -0.211665     -0.896779      0.130322
C      6.59456     15.36773     10.62556        -1.724056      0.492870      0.047424
C     14.38384      5.61067     10.62556         0.585135     -0.227712     -0.008129
C     14.38384     15.36773     10.35284         0.130406      0.561647     -0.241504
C     10.40319      3.19606      7.29314         0.015419      0.902185     -0.253004
C     10.35913      4.25547      6.23373        -0.051493     -0.372863      0.606778
C      0.08601      7.29314      7.29314        -0.008519     -0.237955     -0.469167
C      0.13007      6.23373      6.23373         0.004871      0.120791      0.210981
C      0.08601      3.19606      3.19606        -0.016221      0.639318      0.181710
C      0.13007      4.25547      4.25547        -0.090671     -0.199337     -0.168905
C     10.40319      7.29314      3.19606        -0.001951     -0.690775      0.530371
C     10.35913      6.23373      4.25547        -0.008234      0.505707     -0.406000
C      7.29314     10.40319      3.19606        -0.339398      0.023046      0.858699
C      6.23373     10.35913      4.25547         0.209059      0.012561     -0.142003
C      7.29314      0.08601      7.29314        -0.308837     -0.046079     -0.272894
C      6.23373      0.13007      6.23373         0.270055     -0.058540      0.295448
C      3.19606      0.08601      3.19606         0.439598     -0.051870      1.290991
C      4.25547      0.13007      4.25547        -0.115104     -0.029037     -0.462219
C      3.19606     10.40319      7.29314         0.703074      0.014671     -0.264570
C      4.25547     10.35913      6.23373        -0.133944      0.030780      0.103200
C      3.19606      7.29314     10.40319         0.609075     -1.271067      0.024749
C      4.25547      6.23373     10.35913        -0.718207      0.841943      0.047539
C      7.29314      7.29314      0.08601        -0.655701     -0.170774     -0.022193
C      6.23373      6.23373      0.13007         0.172635      0.270400     -0.008489
C      3.19606      3.19606      0.08601         0.242011      0.251137     -0.019588
C      4.25547      4.25547      0.13007        -0.054098     -0.036637      0.011565
C      7.29314      3.19606     10.40319        -0.371934      0.798945      0.014909
C      6.23373      4.25547     10.35913         0.885009     -0.156526      0.007919
O     10.43466      3.58206      8.50569        -0.048913      0.033910      0.321557
O     10.54374     17.39634      8.50569        -0.024211     -0.181936      0.601063
O     10.54374      3.58206     12.47271         0.055053      0.063654     -0.324818
O     10.43466     17.39634     12.47271        -0.022495     -0.125997     -0.584644
O      8.50569     10.43466      3.58206         0.380732     -0.025002     -0.014044
O      8.50569     10.54374     17.39634         0.471328      0.053141     -0.143503
O     12.47271     10.54374      3.58206        -0.287098      0.048218     -0.073850
O     12.47271     10.43466     17.39634        -0.852199      0.020129     -0.225041
O      3.58206      8.50569     10.43466         0.043159      0.924682      0.039622
O     17.39634      8.50569     10.54374        -0.039563      0.338547      0.077676
O      3.58206     12.47271     10.54374         0.064515     -0.421502      0.064154
O     17.39634     12.47271     10.43466        -0.170353     -0.780893      0.020135
O      3.58206     10.43466      8.50569        -0.055404     -0.066593      0.226964
O     17.39634     10.54374      8.50569        -0.136269      0.042620      0.459416
O      3.58206     10.54374     12.47271        -0.013863     -0.051763     -0.890255
O     17.39634     10.43466     12.47271        -0.197868      0.043085     -0.766795
O     10.43466      8.50569      3.58206         0.044871      0.679759      0.189901
O     10.54374      8.50569     17.39634         0.053910      0.434103     -0.080633
O     10.54374     12.47271      3.58206        -0.006543     -0.726763      0.226018
O     10.43466     12.47271     17.39634         0.047702     -0.849464     -0.274185
O      8.50569      3.58206     10.43466         0.491363      0.074300     -0.038455
O      8.50569     17.39634     10.54374         0.654445     -0.252382     -0.061029
O     12.47271      3.58206     10.54374        -0.484643      0.163581      0.039538
O     12.47271     17.39634     10.43466        -0.530745     -0.037143     -0.029465
O     11.90042     11.90042     19.56718        -0.304133     -0.312398      0.264291
O     19.56718     19.56718     19.56718         0.287229      0.271700      0.320479
O     19.56718     11.90042     11.90042         0.279653     -0.330621     -0.245135
O     11.90042     19.56718     11.90042        -0.229054      0.290207     -0.241293
O      9.45224      1.03696      9.45224        -0.074458      0.047368     -0.067148
O      1.03696      9.45224      9.45224         0.054645     -0.145382     -0.058002
O      1.03696      1.03696      1.03696         0.043272      0.033083      0.186926
O      9.45224      9.45224      1.03696        -0.040228     -0.092431      0.121535
Zr     10.48920      2.52580     10.48920        -0.007663     -0.073171     -0.023693
Zr     10.48920     18.45260     10.48920         0.059507      0.307888     -0.072220
Zr     10.48920     10.48920      2.52580        -0.101360      0.015673     -0.371597
Zr     10.48920     10.48920     18.45260        -0.133407     -0.152280      0.328872
Zr      2.52580     10.48920     10.48920        -0.351300      0.316630     -0.462585
Zr     18.45260     10.48920     10.48920         0.243938      0.036890     -0.262901
Pd      9.04019     10.25720     13.33019        -0.007880     -0.019983     -0.000950
Pd     10.58633      9.72563     10.98029        -0.032069     -0.003549     -0.032051
Pd     13.76302      8.53977     12.68383         0.012783      0.000757     -0.004281
Pd     11.00003     11.07135     15.01697        -0.000336     -0.017656      0.000748
Pd     12.85221     11.17574     13.01303         0.028449      0.008503      0.009690
Pd     14.98179     10.93947     11.34297         0.007723      0.008064     -0.009476
Pd      6.64852      7.44202     12.34205         0.001308      0.019355      0.000595
Pd      9.22990      7.26462     10.11693         0.001122      0.018586     -0.021662
Pd      9.26480      7.60226     12.79396         0.012258     -0.001854     -0.023639
Pd     11.69659      7.28714     11.46269         0.005122     -0.003816     -0.009959
Pd     11.40555      7.99532      8.86078         0.028260     -0.004882     -0.013996
Pd      7.26347     11.83387     11.95291         0.005029      0.005105     -0.009056
Pd      8.90725     14.67544      9.33619         0.034367      0.013860      0.015461
Pd      8.41709     12.65341     14.32216        -0.008842     -0.007672     -0.003621
Pd     13.54738     14.09879      8.55125         0.076699      0.024204     -0.044164
Pd     10.99912     13.34755      8.52569         0.070007      0.032683      0.034448
Pd     14.09219     11.52755      8.92565        -0.003408      0.021395     -0.000819
Pd      8.62077     14.10676     12.10248         0.011020     -0.010017      0.001963
Pd     12.24196     13.72921     14.02520        -0.000119     -0.005022      0.005946
Pd     11.15995     14.43572     11.16036         0.024647     -0.013694      0.041236
Pd     14.05915     13.55101     12.17495        -0.008951      0.010086     -0.003540
Pd     12.31202     12.15420     10.67252         0.000463     -0.028292      0.005650
Pd     12.67260     12.33772      6.71586         0.011563      0.030444     -0.014244
Pd     13.66672      8.94153      7.92396         0.030584      0.007254      0.005856
Pd      6.86383      8.46345      8.85180         0.010772      0.008813     -0.007971
Pd      5.52906      9.93905     11.25712        -0.006070      0.027863     -0.047264
Pd      9.15338      9.73790      8.30929         0.028010     -0.023346     -0.017222
Pd      8.81113      7.23258      7.45781        -0.014100     -0.005041     -0.030245
Pd      9.53048     12.08511     10.42172         0.039844     -0.000284      0.031702
Pd     11.53873     10.71279      8.56955         0.021758      0.015056     -0.027479
Pd     11.25245      9.23462      6.43951         0.035128     -0.021540     -0.010588
Pd      9.91256     11.54858      6.38779         0.018769     -0.022458     -0.011512
Ir     11.35141      9.09999     13.35865        -0.014849      0.011916     -0.028203
Ir     13.07639      9.48480     10.39382         0.021542      0.015729     -0.014952
Ir     10.53154     12.35599     12.71097        -0.017593     -0.021368     -0.005491
Ir      7.15486     10.98055      9.50098         0.022768      0.000819     -0.015922
Ir      8.41558     12.46210      8.18526         0.069516      0.036239     -0.045998
Ir      8.06707      9.29882     11.11602         0.027928     -0.013464      0.002917
