152
# total energy = -1004.82870121 eVH     10.35389      5.87395      7.64558         0.042187      0.067274      0.655370
H     10.62451     15.10445      7.64558        -0.123756     -0.156467      0.524685
H     10.62451      5.87395     13.33282         0.428951      0.035948     -0.832564
H     10.35389     15.10445     13.33282         0.039603     -0.160091     -0.463123
H      7.64558     10.35389      5.87395         0.345386      0.027631      0.157821
H      7.64558     10.62451     15.10445         0.935778      0.575821      0.012418
H     13.33282     10.62451      5.87395        -0.555670      0.349111      0.028657
H     13.33282     10.35389     15.10445        -0.956888     -0.254606      0.134642
H      5.87395      7.64558     10.35389         0.296381      1.433264      0.171451
H     15.10445      7.64558     10.62451        -0.105841      0.543736      0.253375
H      5.87395     13.33282     10.62451         0.188182     -0.572905      0.007898
H     15.10445     13.33282     10.35389         0.025395     -1.094121     -0.359655
H      5.87395     10.35389      7.64558         0.183613      0.038865      0.460629
H     15.10445     10.62451      7.64558        -0.139336      0.602082      0.836569
H      5.87395     10.62451     13.33282        -0.026380      0.584501     -1.286872
H     15.10445     10.35389     13.33282         0.009128     -0.156965     -0.731619
H     10.35389      7.64558      5.87395         0.088158      1.385840      0.031854
H     10.62451      7.64558     15.10445         0.542245      0.716112     -0.123780
H     10.62451     13.33282      5.87395        -0.366684     -0.756994      0.294570
H     10.35389     13.33282     15.10445        -0.164779     -0.472696     -0.316164
H      7.64558      5.87395     10.35389         0.947622     -0.006648     -0.201689
H      7.64558     15.10445     10.62451         0.805942     -0.186883     -0.016693
H     13.33282      5.87395     10.62451        -0.593855      0.163579      0.529625
H     13.33282     15.10445     10.35389        -0.455658     -0.079436     -0.174461
H     12.45634     12.45634     19.01126         0.258166      0.269569     -0.228858
H     19.01126     19.01126     19.01126        -0.275936     -0.261053     -0.223603
H     19.01126     12.45634     12.45634        -0.276615      0.259640      0.221999
H     12.45634     19.01126     12.45634         0.237628     -0.269978      0.262553
C     10.35284      5.61067      6.59456        -0.289024     -0.803720     -0.069736
C     10.62556     15.36773      6.59456         0.029823      0.226568     -0.336150
C     10.62556      5.61067     14.38384        -0.065615     -0.433206      0.526159
C     10.35284     15.36773     14.38384         0.003114      0.302620      0.447530
C      6.59456     10.35284      5.61067        -0.370602      0.023902     -0.204274
C      6.59456     10.62556     15.36773        -1.000710      0.179987      0.729918
C     14.38384     10.62556      5.61067         0.264425     -0.328406     -0.753835
C     14.38384     10.35284     15.36773         1.111232     -0.074304      0.249194
C      5.61067      6.59456     10.35284        -0.772083     -0.389325     -0.334350
C     15.36773      6.59456     10.62556         0.639107     -0.115495     -0.289693
C      5.61067     14.38384     10.62556        -0.195202      0.626278     -0.001287
C     15.36773     14.38384     10.35284         0.304531      1.043332      0.076213
C      5.61067     10.35284      6.59456        -0.271755      0.011236     -0.763209
C     15.36773     10.62556      6.59456         0.547684     -0.150957      0.082107
C      5.61067     10.62556     14.38384        -0.681237     -0.014067      0.891303
C     15.36773     10.35284     14.38384         0.524162     -0.101139      1.047899
C     10.35284      6.59456      5.61067        -0.044283     -0.859157     -0.516862
C     10.62556      6.59456     15.36773         0.103356     -0.626838      0.480325
C     10.62556     14.38384      5.61067         0.105700      1.168085     -0.297894
C     10.35284     14.38384     15.36773        -0.023137      0.987938      0.523293
C      6.59456      5.61067     10.35284         0.027991     -1.166911      0.259115
C      6.59456     15.36773     10.62556        -0.970267      0.166945      0.107757
C     14.38384      5.61067     10.62556        -0.014889     -0.452302     -0.388129
C     14.38384     15.36773     10.35284         0.175619      0.494929     -0.068422
C     10.40319      3.19606      7.29314         0.016680      1.033783     -0.453056
C     10.35913      4.25547      6.23373         0.076575     -0.641580      0.087606
C      0.08601      7.29314      7.29314        -0.029982     -0.910842     -0.176725
C      0.13007      6.23373      6.23373        -0.070266      0.255806      0.339081
C      0.08601      3.19606      3.19606         0.035869      1.316187      0.185391
C      0.13007      4.25547      4.25547        -0.026651     -0.417758     -0.324005
C     10.40319      7.29314      3.19606         0.008004     -0.426872      0.291888
C     10.35913      6.23373      4.25547         0.020100      0.053866     -0.874264
C      7.29314     10.40319      3.19606        -0.256295      0.019262      0.581166
C      6.23373     10.35913      4.25547         0.171803      0.079214     -0.105163
C      7.29314      0.08601      7.29314        -1.136224     -0.088184     -0.287517
C      6.23373      0.13007      6.23373         0.821876     -0.216999      0.383084
C      3.19606      0.08601      3.19606         1.044674     -0.027680      0.548437
C      4.25547      0.13007      4.25547        -0.630140     -0.176826     -0.585467
C      3.19606     10.40319      7.29314         0.602461      0.009033     -0.587700
C      4.25547     10.35913      6.23373        -0.287551      0.109347      0.240632
C      3.19606      7.29314     10.40319         0.340784     -1.136601      0.032432
C      4.25547      6.23373     10.35913        -1.124566      0.051659      0.145741
C      7.29314      7.29314      0.08601        -0.452177     -0.467584     -0.014403
C      6.23373      6.23373      0.13007         0.479781      0.311867      0.030494
C      3.19606      3.19606      0.08601         0.453216      0.376315     -0.033684
C      4.25547      4.25547      0.13007        -0.072493     -0.622344     -0.077566
C      7.29314      3.19606     10.40319        -0.400392      0.505160      0.065157
C      6.23373      4.25547     10.35913         0.352426     -0.783053      0.194795
O     10.43466      3.58206      8.50569        -0.031590      0.011555      0.414793
O     10.54374     17.39634      8.50569         0.065322     -0.049358      0.267211
O     10.54374      3.58206     12.47271         0.013468     -0.093482     -0.112659
O     10.43466     17.39634     12.47271        -0.034886     -0.153934     -0.531251
O      8.50569     10.43466      3.58206         0.296540     -0.020393      0.018794
O      8.50569     10.54374     17.39634         0.908795     -0.074357     -0.175026
O     12.47271     10.54374      3.58206        -0.841674      0.099271      0.077106
O     12.47271     10.43466     17.39634        -0.550815      0.025662     -0.099324
O      3.58206      8.50569     10.43466         0.171801      1.020193     -0.025597
O     17.39634      8.50569     10.54374        -0.148616      0.638762      0.053672
O      3.58206     12.47271     10.54374         0.102737     -0.500248      0.042474
O     17.39634     12.47271     10.43466        -0.153172     -0.605193     -0.030658
O      3.58206     10.43466      8.50569         0.070810     -0.078683      0.547988
O     17.39634     10.54374      8.50569         0.038247      0.104957      0.347225
O      3.58206     10.54374     12.47271         0.007246      0.037282     -0.464886
O     17.39634     10.43466     12.47271        -0.232117     -0.033922     -0.701725
O     10.43466      8.50569      3.58206        -0.044804      0.524182      0.148976
O     10.54374      8.50569     17.39634        -0.074993      0.732976     -0.208365
O     10.54374     12.47271      3.58206         0.055271     -0.971258      0.177908
O     10.43466     12.47271     17.39634         0.081057     -0.893018     -0.230039
O      8.50569      3.58206     10.43466         0.575852      0.141538     -0.058792
O      8.50569     17.39634     10.54374         0.542257     -0.159640     -0.002645
O     12.47271      3.58206     10.54374        -0.634824      0.162430      0.022170
O     12.47271     17.39634     10.43466        -0.341624      0.019452     -0.045558
O     11.90042     11.90042     19.56718        -0.295397     -0.309351      0.223005
O     19.56718     19.56718     19.56718         0.315240      0.306096      0.213948
O     19.56718     11.90042     11.90042         0.318914     -0.266374     -0.236741
O     11.90042     19.56718     11.90042        -0.251943      0.321609     -0.309237
O      9.45224      1.03696      9.45224        -0.012395      0.065293     -0.153287
O      1.03696      9.45224      9.45224         0.065798     -0.055865     -0.175734
O      1.03696      1.03696      1.03696         0.089489      0.140362      0.048279
O      9.45224      9.45224      1.03696        -0.083900     -0.082074      0.027149
Zr     10.48920      2.52580     10.48920        -0.045795     -0.190308      0.001341
Zr     10.48920     18.45260     10.48920        -0.057317      0.127204      0.218948
Zr     10.48920     10.48920      2.52580        -0.154140     -0.439214     -0.230962
Zr     10.48920     10.48920     18.45260         0.019137      0.024598      0.503251
Zr      2.52580     10.48920     10.48920        -0.268967      0.216403      0.192597
Zr     18.45260     10.48920     10.48920         0.175522     -0.010731     -0.043213
Pd     13.41454      8.71414      9.41284         0.019721      0.029965     -0.000305
Pd      5.85811      9.73626     10.05935         0.071266      0.019657     -0.022280
Pd      6.90211     11.50567     11.73589         0.032295     -0.113967      0.041932
Pd     12.17136     13.13663      7.44312         0.073050     -0.079482     -0.047737
Pd     12.15649      7.66074      6.92776        -0.024037      0.035020      0.087299
Pd      8.37371      7.11171      6.75450        -0.009325      0.024205     -0.102210
Pd     11.09083     11.34678      5.61350        -0.056141      0.001297      0.006667
Pd     14.59096      8.59215      6.97498         0.049500     -0.000897      0.040721
Pd      9.90408     11.68589      8.14767        -0.115517     -0.011513     -0.051934
Pd      6.84918      6.86345     12.21918        -0.076675     -0.003794      0.028315
Pd      6.36975      7.52697      8.37932         0.070761     -0.065192     -0.007883
Pd      7.10542      9.06484     13.64096        -0.033774     -0.001726      0.067912
Pd     11.59888      6.55134      9.26661         0.032398     -0.040206      0.045135
Pd      9.93701      9.32769      6.83771        -0.024062      0.016235     -0.068825
Pd      9.07076     13.91165      9.44923         0.022368      0.003758     -0.020551
Pd     10.57345      7.37234     11.48628        -0.095036     -0.092919     -0.038162
Pd     10.59452      9.08773      9.44794         0.028845      0.018173     -0.014088
Pd      9.42080     11.32869     10.74750        -0.009450      0.015838     -0.049916
Pd      8.95975      7.01432      9.31645        -0.012312      0.094243      0.037545
Pd      9.03735      7.31760     13.57447         0.029393     -0.067361      0.029822
Pd      8.26806      8.93630     11.26087         0.004278      0.033571     -0.031567
Pd     12.26143     10.34436      7.72974        -0.031700      0.076293     -0.018804
Pd      7.27216     11.99193      9.16195         0.028331      0.011326      0.011718
Pd      8.06855      9.55480      8.62376         0.060348     -0.003406      0.040030
Pd     14.12258      6.34706      8.42274         0.055150      0.097784      0.033378
Pd     12.89429      8.52556     12.01091        -0.073901     -0.110637     -0.097181
Pd      8.82388     11.48015     13.50083         0.047646     -0.105277      0.024121
Pd     13.83883     11.95287      9.10020         0.020770     -0.027732      0.000298
Pd     13.04129     11.00554     13.24953        -0.065230     -0.063416     -0.056045
Pd     14.76133     10.40285     11.11153        -0.092227      0.011201      0.020981
Pd     12.08192     10.74468     10.75199        -0.055312      0.070492     -0.049934
Pd     11.48878     13.19189      9.98165        -0.030986     -0.001003     -0.119487
Pd     13.61440     13.02478     11.64815        -0.021188      0.003158      0.030654
Pd     11.08382     12.69696     12.53967        -0.091503     -0.028965     -0.037695
Pd     11.06660     11.44858     14.97281         0.099856      0.048296     -0.019253
Pd     10.62709      9.70855     12.79939         0.017310     -0.038791     -0.002432
Pd      9.37191      9.43067     15.19934         0.083269     -0.040608      0.010281
Pd      8.64695     13.65121     12.05427         0.008867      0.008657     -0.040018
