9
# total energy = -71.25742653 eVC      2.67630      0.76424      7.50000        -0.000000     -0.030679     -0.000000
C      2.67630      4.58836      7.50000        -0.000000      0.030679     -0.000000
C      4.58836      2.67630      7.50000         0.030679      0.000000      0.000000
C      0.76424      2.67630      7.50000        -0.030679      0.000000     -0.000000
C      3.95649      3.95649      7.50000         0.021913      0.021913      0.000000
C      1.39611      1.39611      7.50000        -0.021913     -0.021913      0.000000
C      1.39611      3.95649      7.50000        -0.021913      0.021913     -0.000000
C      3.95649      1.39611      7.50000         0.021913     -0.021913      0.000000
Pd      0.00000      0.00000      7.50000        -0.000000      0.000000      0.000000
