37
# total energy = -244.53940793 eVH      6.49490     11.07160      7.49840         0.000000      0.021883     -0.000000
H      6.49490      1.91820      7.49840         0.000000     -0.021883     -0.000000
H      1.91820      6.49490      7.49840        -0.021883      0.000000     -0.000000
H     11.07160      6.49490      7.49840         0.021883      0.000000     -0.000000
C      6.49490      9.98501      7.49840        -0.000000     -0.016120      0.000000
C      6.49490      3.00479      7.49840         0.000000      0.016120     -0.000000
C      3.00479      6.49490      7.49840         0.016120     -0.000000     -0.000000
C      9.98501      6.49490      7.49840        -0.016120      0.000000      0.000000
C      3.52744      7.81198      7.49840         0.024156      0.030487     -0.000000
C      9.46236      5.17782      7.49840        -0.024156     -0.030487      0.000000
C      5.17782      3.52744      7.49840        -0.030487      0.024156      0.000000
C      7.81198      9.46236      7.49840         0.030487     -0.024156     -0.000000
C      9.46236      7.81198      7.49840        -0.024156      0.030487      0.000000
C      3.52744      5.17782      7.49840         0.024156     -0.030487     -0.000000
C      7.81198      3.52744      7.49840         0.030487      0.024156     -0.000000
C      5.17782      9.46236      7.49840        -0.030487     -0.024156     -0.000000
C     12.25589      0.73391      7.49840         0.007481     -0.007481     -0.000000
C      0.73391     12.25589      7.49840        -0.007481      0.007481     -0.000000
C     12.25589     12.25589      7.49840         0.007481      0.007481      0.000000
C      0.73391      0.73391      7.49840        -0.007481     -0.007481     -0.000000
N      4.88391      8.10589      7.49840        -0.002047      0.002047     -0.000000
N      8.10589      4.88391      7.49840         0.002047     -0.002047     -0.000000
N      4.88391      4.88391      7.49840        -0.002047     -0.002047     -0.000000
N      8.10589      8.10589      7.49840         0.002047      0.002047     -0.000000
O      8.67839     10.40020      7.49840        -0.013919      0.024909     -0.000000
O      4.31141      2.58960      7.49840         0.013919     -0.024909      0.000000
O      2.58960      8.67839      7.49840        -0.024909     -0.013919     -0.000000
O     10.40020      4.31141      7.49840         0.024909      0.013919      0.000000
O      4.31141     10.40020      7.49840         0.013919      0.024909      0.000000
O      8.67839      2.58960      7.49840        -0.013919     -0.024909      0.000000
O     10.40020      8.67839      7.49840         0.024909     -0.013919     -0.000000
O      2.58960      4.31141      7.49840        -0.024909      0.013919      0.000000
Au     10.89499      2.09481      7.49840        -0.018346      0.018346     -0.000000
Au      2.09481     10.89499      7.49840         0.018346     -0.018346     -0.000000
Au     10.89499     10.89499      7.49840        -0.018346     -0.018346     -0.000000
Au      2.09481      2.09481      7.49840         0.018346      0.018346     -0.000000
Au      6.49490      6.49490      7.49840         0.000000      0.000000     -0.000000
