152
# total energy = -1093.14401189 eVH     10.35389      5.87395      7.64558         0.058410     -0.113712      1.261346
H     10.62451     15.10445      7.64558        -0.193022      0.082140      1.403676
H     10.62451      5.87395     13.33282         0.141344     -0.043794     -1.107889
H     10.35389     15.10445     13.33282         0.018616     -0.049140     -0.898022
H      7.64558     10.35389      5.87395         0.506987      0.022324     -0.076683
H      7.64558     10.62451     15.10445         0.403594      0.001168      0.001051
H     13.33282     10.62451      5.87395        -0.663074     -0.037962      0.003704
H     13.33282     10.35389     15.10445        -0.430128     -0.007010     -0.007214
H      5.87395      7.64558     10.35389        -0.143746      1.354014      0.069646
H     15.10445      7.64558     10.62451        -0.013556      0.477775      0.033084
H      5.87395     13.33282     10.62451        -0.068085     -0.231919      0.035054
H     15.10445     13.33282     10.35389         0.211301     -1.582565      0.118962
H      5.87395     10.35389      7.64558        -0.103367     -0.696685      0.489339
H     15.10445     10.62451      7.64558         0.467632      0.824452      0.156711
H      5.87395     10.62451     13.33282        -0.020903     -0.194132     -0.274037
H     15.10445     10.35389     13.33282        -0.065939      0.224243     -0.143235
H     10.35389      7.64558      5.87395        -0.148740      0.417766      0.049524
H     10.62451      7.64558     15.10445         0.042271      0.521939      0.264055
H     10.62451     13.33282      5.87395         0.040224     -0.439663     -0.182253
H     10.35389     13.33282     15.10445        -0.153941     -0.546114      0.195692
H      7.64558      5.87395     10.35389         0.471537     -0.031452     -0.046837
H      7.64558     15.10445     10.62451         0.299433      0.026081     -0.030251
H     13.33282      5.87395     10.62451        -0.199595     -0.087589     -0.014651
H     13.33282     15.10445     10.35389        -0.510911      0.110609     -0.023332
H     12.45634     12.45634     19.01126         0.265259      0.246500     -0.244440
H     19.01126     19.01126     19.01126        -0.262632     -0.242944     -0.252261
H     19.01126     12.45634     12.45634        -0.264266      0.262872      0.232873
H     12.45634     19.01126     12.45634         0.273904     -0.255044      0.226539
C     10.35284      5.61067      6.59456        -0.188330     -0.291816     -1.770484
C     10.62556     15.36773      6.59456         0.456283      0.113026     -1.869067
C     10.62556      5.61067     14.38384        -0.350039     -0.121088      1.699598
C     10.35284     15.36773     14.38384         0.246624      0.147688      1.651020
C      6.59456     10.35284      5.61067        -0.894837     -0.111717     -0.306870
C      6.59456     10.62556     15.36773        -0.820153     -0.007179      0.107789
C     14.38384     10.62556      5.61067         1.024501      0.035563     -0.229366
C     14.38384     10.35284     15.36773         0.779648     -0.018500      0.177085
C      5.61067      6.59456     10.35284        -0.083617     -1.632591      0.048671
C     15.36773      6.59456     10.62556         0.294524     -0.940740      0.034551
C      5.61067     14.38384     10.62556        -0.404481      0.773704      0.036420
C     15.36773     14.38384     10.35284         0.042873      1.832006     -0.083162
C      5.61067     10.35284      6.59456        -0.722911      0.247124     -1.817363
C     15.36773     10.62556      6.59456         0.749637     -0.214776     -1.972397
C      5.61067     10.62556     14.38384        -0.668388      0.094718      1.650809
C     15.36773     10.35284     14.38384         0.584179     -0.067098      1.421909
C     10.35284      6.59456      5.61067         0.032624     -1.572555     -0.766321
C     10.62556      6.59456     15.36773        -0.046308     -1.870917      0.727613
C     10.62556     14.38384      5.61067         0.095387      1.816517     -0.851370
C     10.35284     14.38384     15.36773         0.038120      1.866012      0.640799
C      6.59456      5.61067     10.35284        -0.833545     -0.827162     -0.031786
C      6.59456     15.36773     10.62556        -1.030985      0.564937      0.069397
C     14.38384      5.61067     10.62556         0.982184     -0.717446      0.087754
C     14.38384     15.36773     10.35284         0.890704      0.925986      0.008053
C     10.40319      3.19606      7.29314        -0.004677      0.532313     -0.559313
C     10.35913      4.25547      6.23373        -0.014517     -0.833126      0.525061
C      0.08601      7.29314      7.29314         0.017001     -0.461774     -0.575523
C      0.13007      6.23373      6.23373         0.052189      0.861806      0.442483
C      0.08601      3.19606      3.19606         0.026489      0.687797      0.450414
C      0.13007      4.25547      4.25547        -0.041366     -0.745015     -0.488963
C     10.40319      7.29314      3.19606        -0.012629     -0.758828      0.484649
C     10.35913      6.23373      4.25547         0.014661      0.575519     -0.509518
C      7.29314     10.40319      3.19606        -0.306856     -0.007835      0.536094
C      6.23373     10.35913      4.25547         0.183537     -0.074979     -0.160440
C      7.29314      0.08601      7.29314        -0.242671     -0.031576     -0.392792
C      6.23373      0.13007      6.23373         0.154113     -0.097516      0.373568
C      3.19606      0.08601      3.19606         0.404154      0.011315      0.454760
C      4.25547      0.13007      4.25547        -0.197372      0.071687     -0.209743
C      3.19606     10.40319      7.29314         0.235462      0.030114     -0.476281
C      4.25547     10.35913      6.23373        -0.177398      0.109504      0.364506
C      3.19606      7.29314     10.40319         0.179447     -0.316097      0.004328
C      4.25547      6.23373     10.35913        -0.585573      0.186192      0.052064
C      7.29314      7.29314      0.08601        -0.585937     -0.467827      0.003536
C      6.23373      6.23373      0.13007         0.119924      0.208121     -0.058314
C      3.19606      3.19606      0.08601         0.560188      0.438147      0.002204
C      4.25547      4.25547      0.13007        -0.061577     -0.099304     -0.031916
C      7.29314      3.19606     10.40319        -0.215349      0.355783      0.004023
C      6.23373      4.25547     10.35913         0.625153     -0.253966      0.018516
O     10.43466      3.58206      8.50569         0.014863      0.232720      0.489120
O     10.54374     17.39634      8.50569        -0.029825     -0.238712      0.514886
O     10.54374      3.58206     12.47271         0.079377      0.158381     -0.386355
O     10.43466     17.39634     12.47271        -0.104684     -0.134674     -0.366752
O      8.50569     10.43466      3.58206         0.404330     -0.021084      0.069247
O      8.50569     10.54374     17.39634         0.459337      0.059450     -0.122380
O     12.47271     10.54374      3.58206        -0.503069     -0.009898      0.106985
O     12.47271     10.43466     17.39634        -0.432126     -0.052712     -0.113440
O      3.58206      8.50569     10.43466         0.168907      0.422824     -0.052039
O     17.39634      8.50569     10.54374        -0.087650      0.563310      0.046780
O      3.58206     12.47271     10.54374         0.050074     -0.523945      0.040910
O     17.39634     12.47271     10.43466        -0.177882     -0.460709     -0.022483
O      3.58206     10.43466      8.50569         0.178319     -0.016472      0.480409
O     17.39634     10.54374      8.50569        -0.126101     -0.011600      0.458492
O      3.58206     10.54374     12.47271         0.175465      0.087558     -0.463390
O     17.39634     10.43466     12.47271        -0.198409     -0.079427     -0.547115
O     10.43466      8.50569      3.58206         0.048542      0.633833      0.267534
O     10.54374      8.50569     17.39634         0.057133      0.491582     -0.209617
O     10.54374     12.47271      3.58206        -0.016859     -0.644242      0.270345
O     10.43466     12.47271     17.39634        -0.032347     -0.530454     -0.225714
O      8.50569      3.58206     10.43466         0.515092      0.150372     -0.030264
O      8.50569     17.39634     10.54374         0.617665     -0.095937      0.045382
O     12.47271      3.58206     10.54374        -0.630580      0.109419      0.029922
O     12.47271     17.39634     10.43466        -0.491023     -0.140386     -0.016864
O     11.90042     11.90042     19.56718        -0.310501     -0.283627      0.270676
O     19.56718     19.56718     19.56718         0.312127      0.271038      0.289711
O     19.56718     11.90042     11.90042         0.319519     -0.310273     -0.236443
O     11.90042     19.56718     11.90042        -0.330352      0.281390     -0.225574
O      9.45224      1.03696      9.45224        -0.036774      0.057721     -0.066001
O      1.03696      9.45224      9.45224         0.031217     -0.080910     -0.059799
O      1.03696      1.03696      1.03696         0.029379      0.050166      0.131637
O      9.45224      9.45224      1.03696        -0.029172     -0.086082      0.132509
Zr     10.48920      2.52580     10.48920        -0.102723     -0.125891     -0.007464
Zr     10.48920     18.45260     10.48920         0.119035      0.189752     -0.100823
Zr     10.48920     10.48920      2.52580        -0.002262      0.098806     -0.321195
Zr     10.48920     10.48920     18.45260        -0.023874     -0.018316      0.148564
Zr      2.52580     10.48920     10.48920        -0.036959     -0.026952     -0.057817
Zr     18.45260     10.48920     10.48920         0.105038      0.110173     -0.146346
Pd     12.95692      8.08643      7.64808        -0.014366     -0.013165     -0.011232
Pd      9.57234     14.57753     11.75891         0.008153     -0.006736     -0.019779
Pd     12.32986     10.89808     10.42254        -0.004770     -0.034549      0.016037
Pd     14.66231      9.99848     11.58374        -0.005400     -0.003011      0.006826
Pd     10.95134      9.30777      6.16252         0.010784      0.011870     -0.026977
Pd      6.91381      8.50692      8.96853         0.019228      0.041026      0.008498
Ir     10.25991     11.85200     11.76029        -0.004078      0.002283     -0.035874
Ir     12.91156      8.28858     10.32155        -0.010367     -0.007044     -0.024705
Ir     12.30188     10.99047      7.73301        -0.006107      0.002977     -0.020380
Ir      9.68985     14.38785      9.16673        -0.023166     -0.003557     -0.009004
Ir     10.79468      9.18883     11.70636        -0.010223     -0.017079      0.010954
Ir      8.69007     10.06907      7.76211        -0.022574     -0.027812      0.000767
Ir     13.87148     12.52084      9.03969        -0.008209     -0.000523      0.006758
Ir     11.97535     13.57529      7.81692        -0.029983     -0.009186      0.005237
Ir     14.29942      9.90530      9.01831        -0.009748     -0.019089      0.015810
Ir      9.20470      7.43641     10.38506         0.002427      0.014948     -0.022854
Ir      8.16548     12.74728      7.83574        -0.022282     -0.023265      0.001881
Ir      9.15176      7.59387      7.81605         0.006200      0.012771     -0.002265
Ir     11.86164     13.50671     13.03482        -0.010543     -0.016724     -0.023645
Ir     11.39245      6.69166     11.71418        -0.026698     -0.008152     -0.023485
Ir     10.23913     11.81707      9.08077         0.013695      0.022353      0.013325
Ir     12.89767      8.31757     12.97902        -0.005579      0.017513     -0.028893
Ir     10.81793      9.15591      8.98198        -0.017630     -0.013287     -0.002137
Ir     11.79678     13.58310     10.41444        -0.012226     -0.005723      0.005983
Ir     13.83646     12.62190     11.79282        -0.013519     -0.038213     -0.017213
Ir     12.38395     10.97708     13.08050        -0.022848      0.023425      0.003197
Ir     10.12989     11.70771      6.49426        -0.014507      0.021587     -0.002767
Ir     11.31363      6.58094      9.20978         0.011456      0.000594     -0.027445
Ir      7.18184      8.36630     11.78629         0.008465     -0.008938      0.016249
Ir      8.18016     12.71335     10.43772         0.006962      0.000653     -0.011331
Ir     10.87745      9.26320     14.26292         0.010998     -0.012710      0.025699
Ir      8.09323     12.53773     12.99739        -0.015360      0.004174     -0.016569
Ir      6.58278     11.23398      9.08639        -0.018839      0.031798     -0.019879
Ir      8.65423     10.03691     13.05412        -0.017201      0.014303      0.001980
Ir      6.57938     10.91974     11.55022        -0.017725     -0.006060     -0.008674
Ir      9.11900      7.45965     13.02769         0.008710      0.020756      0.041930
Ir     10.19867     11.65415     14.35967         0.000049     -0.020120      0.017279
Ir      8.70906     10.05681     10.40029         0.015876      0.019417     -0.015369
