21
# total energy = -121.50419001 eVC      6.03270      9.14019      7.50000         0.031230      0.005602     -0.000000
C     12.07026      1.31156      7.50000        -0.031230     -0.005602      0.000000
C      7.17097     11.10613      7.50000        -0.020467      0.024245     -0.000000
C     10.93199     -0.65438      7.50000         0.020467     -0.024245     -0.000000
C      4.89929     11.10893      7.50000        -0.010763     -0.029847     -0.000000
C     13.20367     -0.65718      7.50000         0.010763      0.029847      0.000000
C     10.93199      0.65438      7.50000         0.020467      0.024245      0.000000
C      7.17097      9.79737      7.50000        -0.020467     -0.024245     -0.000000
C     13.20367      0.65718      7.50000         0.010763     -0.029847      0.000000
C      4.89929      9.79457      7.50000        -0.010763      0.029847     -0.000000
C     12.07026     -1.31156      7.50000        -0.031230      0.005602      0.000000
C      6.03270     11.76331      7.50000         0.031230     -0.005602      0.000000
O      8.15237      6.78317      7.50000         0.304737     -0.527820     -0.000000
O      9.95059      3.66858      7.50000        -0.304737      0.527820      0.000000
O      8.15237     14.12033      7.50000         0.304737      0.527820      0.000000
O      9.95059     -3.66858      7.50000        -0.304737     -0.527820     -0.000000
O      1.79821     10.45175      7.50000        -0.609475     -0.000000     -0.000000
O     16.30475     -0.00000      7.50000         0.609475     -0.000000      0.000000
Pd      9.05148      5.22588      7.50000         0.000000     -0.000000      0.000000
Pd      9.05148     -5.22588      7.50000        -0.000000     -0.000000      0.000000
Pd      0.00000     10.45175      7.50000        -0.000000     -0.000000      0.000000
