152
# total energy = -1005.99500304 eVH     10.35389      5.87395      7.64558         0.258067      0.036899      0.635666
H     10.62451     15.10445      7.64558        -0.107573     -0.142648      0.519072
H     10.62451      5.87395     13.33282         0.485414      0.121209     -0.584004
H     10.35389     15.10445     13.33282         0.074220     -0.184160     -0.550386
H      7.64558     10.35389      5.87395         0.371258      0.066776      0.168743
H      7.64558     10.62451     15.10445         0.693893      0.472044     -0.041034
H     13.33282     10.62451      5.87395        -0.530897      0.419060      0.076473
H     13.33282     10.35389     15.10445        -0.803413     -0.095395      0.008341
H      5.87395      7.64558     10.35389         0.244654      0.724111     -0.362525
H     15.10445      7.64558     10.62451        -0.094959      0.482806      0.284851
H      5.87395     13.33282     10.62451         0.158697     -0.697554     -0.158019
H     15.10445     13.33282     10.35389        -0.008155     -1.032789     -0.327356
H      5.87395     10.35389      7.64558         0.256301      0.239096      0.688724
H     15.10445     10.62451      7.64558        -0.109594      0.406046      0.763625
H      5.87395     10.62451     13.33282         0.137527      0.330105     -0.693672
H     15.10445     10.35389     13.33282        -0.049419     -0.074433     -0.693666
H     10.35389      7.64558      5.87395         0.383812      1.048274     -0.007431
H     10.62451      7.64558     15.10445         0.535722      0.536229     -0.119849
H     10.62451     13.33282      5.87395        -0.397639     -0.840871      0.188330
H     10.35389     13.33282     15.10445        -0.044127     -0.433549     -0.217134
H      7.64558      5.87395     10.35389         0.848751      0.093320     -0.291227
H      7.64558     15.10445     10.62451         0.834377     -0.198436      0.007085
H     13.33282      5.87395     10.62451        -0.801156      0.193741      0.587851
H     13.33282     15.10445     10.35389        -0.444112     -0.109594     -0.133361
H     12.45634     12.45634     19.01126         0.235474      0.270473     -0.239707
H     19.01126     19.01126     19.01126        -0.262411     -0.240660     -0.261214
H     19.01126     12.45634     12.45634        -0.266761      0.268692      0.219025
H     12.45634     19.01126     12.45634         0.232167     -0.256013      0.278020
C     10.35284      5.61067      6.59456        -0.433244     -0.714996      0.179308
C     10.62556     15.36773      6.59456         0.063620      0.366501     -0.300657
C     10.62556      5.61067     14.38384        -0.332523     -0.366096     -0.302072
C     10.35284     15.36773     14.38384        -0.008124      0.336947      0.539035
C      6.59456     10.35284      5.61067        -0.243247     -0.004075     -0.369939
C      6.59456     10.62556     15.36773        -0.259938     -0.218787      0.806625
C     14.38384     10.62556      5.61067        -0.264139     -0.399845     -0.518474
C     14.38384     10.35284     15.36773         0.976377     -0.058279      0.253596
C      5.61067      6.59456     10.35284        -0.538975     -0.004390      0.133199
C     15.36773      6.59456     10.62556         0.528012      0.021469     -0.250657
C      5.61067     14.38384     10.62556        -0.334722      0.974931      0.077698
C     15.36773     14.38384     10.35284         0.313794      1.039505      0.051144
C      5.61067     10.35284      6.59456        -0.182466     -0.280638     -0.612761
C     15.36773     10.62556      6.59456         0.445875     -0.284524      0.116304
C      5.61067     10.62556     14.38384        -0.718288     -0.350465     -0.068351
C     15.36773     10.35284     14.38384         0.385226     -0.063152      1.018437
C     10.35284      6.59456      5.61067        -0.211361     -0.231839     -0.653567
C     10.62556      6.59456     15.36773        -0.267582      0.127269      0.448939
C     10.62556     14.38384      5.61067         0.202307      1.061931     -0.347414
C     10.35284     14.38384     15.36773         0.022369      0.541321      0.438939
C      6.59456      5.61067     10.35284        -0.164785     -0.672664      0.241413
C      6.59456     15.36773     10.62556        -1.016934      0.296335      0.079501
C     14.38384      5.61067     10.62556         0.494311     -0.548707     -0.365506
C     14.38384     15.36773     10.35284         0.214580      0.457538     -0.101930
C     10.40319      3.19606      7.29314         0.010065      0.688117     -0.482349
C     10.35913      4.25547      6.23373         0.085609     -0.723630     -0.019103
C      0.08601      7.29314      7.29314        -0.043992     -0.409316     -0.311167
C      0.13007      6.23373      6.23373        -0.023034      0.084246      0.569738
C      0.08601      3.19606      3.19606        -0.015665      1.256128      0.281792
C      0.13007      4.25547      4.25547         0.049485     -0.776297     -0.153596
C     10.40319      7.29314      3.19606         0.010621     -0.335942      0.344163
C     10.35913      6.23373      4.25547         0.026835      0.008866     -0.872776
C      7.29314     10.40319      3.19606        -0.341757      0.021417      0.566263
C      6.23373     10.35913      4.25547         0.206688      0.059525     -0.106450
C      7.29314      0.08601      7.29314        -0.522308     -0.064574     -0.373827
C      6.23373      0.13007      6.23373         0.681242     -0.049978      0.486029
C      3.19606      0.08601      3.19606         0.693334     -0.036084      0.568244
C      4.25547      0.13007      4.25547        -0.576522     -0.082476     -0.551526
C      3.19606     10.40319      7.29314         0.481396     -0.016907     -0.772527
C      4.25547     10.35913      6.23373        -0.457978      0.039702      0.200550
C      3.19606      7.29314     10.40319         0.288630     -1.267199      0.041468
C      4.25547      6.23373     10.35913        -0.727852      0.104392      0.153638
C      7.29314      7.29314      0.08601        -0.407769     -0.371930     -0.027710
C      6.23373      6.23373      0.13007         0.468568      0.213760     -0.019558
C      3.19606      3.19606      0.08601         0.495471      0.373256     -0.039787
C      4.25547      4.25547      0.13007        -0.153175     -0.649006     -0.034465
C      7.29314      3.19606     10.40319        -0.323167      0.428235      0.075974
C      6.23373      4.25547     10.35913         0.267165     -0.689715      0.140207
O     10.43466      3.58206      8.50569        -0.016295      0.103090      0.504166
O     10.54374     17.39634      8.50569         0.036527     -0.174926      0.484287
O     10.54374      3.58206     12.47271         0.056190     -0.084939     -0.186799
O     10.43466     17.39634     12.47271        -0.038491     -0.182941     -0.557365
O      8.50569     10.43466      3.58206         0.322641      0.000183      0.031286
O      8.50569     10.54374     17.39634         0.631061      0.033817     -0.144761
O     12.47271     10.54374      3.58206        -0.690363      0.083569      0.093200
O     12.47271     10.43466     17.39634        -0.438855      0.026000     -0.111168
O      3.58206      8.50569     10.43466         0.179615      1.037567     -0.044517
O     17.39634      8.50569     10.54374        -0.161230      0.539062      0.076504
O      3.58206     12.47271     10.54374         0.084777     -0.365152      0.049037
O     17.39634     12.47271     10.43466        -0.157174     -0.546646     -0.022756
O      3.58206     10.43466      8.50569         0.076477     -0.063773      0.590584
O     17.39634     10.54374      8.50569        -0.110519      0.066206      0.522704
O      3.58206     10.54374     12.47271         0.050145      0.050350     -0.528412
O     17.39634     10.43466     12.47271        -0.220618     -0.039356     -0.598201
O     10.43466      8.50569      3.58206        -0.039584      0.464928      0.135119
O     10.54374      8.50569     17.39634         0.049117      0.530219     -0.160234
O     10.54374     12.47271      3.58206        -0.000543     -1.010991      0.205979
O     10.43466     12.47271     17.39634         0.041989     -0.731080     -0.175044
O      8.50569      3.58206     10.43466         0.507371      0.146317     -0.054458
O      8.50569     17.39634     10.54374         0.487295     -0.197608      0.014250
O     12.47271      3.58206     10.54374        -0.637109      0.233400      0.009405
O     12.47271     17.39634     10.43466        -0.215401      0.069603     -0.056357
O     11.90042     11.90042     19.56718        -0.239686     -0.289428      0.247485
O     19.56718     19.56718     19.56718         0.310561      0.295194      0.300737
O     19.56718     11.90042     11.90042         0.290625     -0.264965     -0.233150
O     11.90042     19.56718     11.90042        -0.241939      0.290561     -0.333761
O      9.45224      1.03696      9.45224        -0.020037      0.087046     -0.072844
O      1.03696      9.45224      9.45224         0.091103     -0.092227     -0.138002
O      1.03696      1.03696      1.03696         0.089435      0.189768      0.048929
O      9.45224      9.45224      1.03696        -0.110390     -0.101897      0.032446
Zr     10.48920      2.52580     10.48920        -0.129945     -0.289328     -0.036369
Zr     10.48920     18.45260     10.48920        -0.074556      0.215366      0.088720
Zr     10.48920     10.48920      2.52580         0.047551     -0.406203     -0.253323
Zr     10.48920     10.48920     18.45260        -0.274003     -0.090882      0.323356
Zr      2.52580     10.48920     10.48920        -0.377333      0.241328      0.296622
Zr     18.45260     10.48920     10.48920         0.238810     -0.001939     -0.224614
Pd     13.60995      8.98596      9.20987        -0.004810      0.001832     -0.005299
Pd      5.62788      9.86739     10.13621         0.001665      0.002020     -0.007905
Pd      6.77293     11.85075     11.70996        -0.000822     -0.001302     -0.000571
Pd     12.06327     12.99997      7.36195        -0.004729     -0.002083      0.000706
Pd     11.87753      7.74147      7.45904        -0.002232     -0.002900     -0.002647
Pd      8.31436      6.84141      6.54762         0.003365     -0.009145     -0.008367
Pd     10.59585     11.16917      5.65222        -0.016542     -0.000130      0.000881
Pd     14.39977      8.54847      6.73410        -0.001357     -0.000425     -0.002169
Pd      9.66771     11.73138      8.13803        -0.001320     -0.002318      0.007007
Pd      6.73782      6.79175     12.33446        -0.003570     -0.002320      0.002296
Pd      6.58471      8.19718      7.94824         0.016574      0.036425     -0.036621
Pd      6.52625      8.49354     14.37977         0.000044     -0.000673      0.003284
Pd     11.48914      6.51844      9.94741        -0.003490     -0.004689      0.002220
Pd      9.47848      9.20035      7.16404        -0.007922     -0.001775      0.000869
Pd      8.97937     13.99114      9.34808        -0.000471     -0.003242      0.010259
Pd      9.44594      7.36905     11.70809        -0.004775     -0.001389     -0.004243
Pd     10.62551      8.96964      9.68098         0.006076     -0.002280     -0.002864
Pd      9.34042     11.55702     10.72588        -0.000653      0.004723      0.005333
Pd      8.87645      7.06602      9.12255        -0.008614      0.000643     -0.005733
Pd      8.55355      6.57909     14.23777         0.000715      0.001220     -0.001848
Pd      7.62964      9.32499     12.01849        -0.004381     -0.001913      0.003732
Pd     11.95063     10.37839      7.72031        -0.003405     -0.002904     -0.006518
Pd      7.12926     12.01578      9.06709         0.000112     -0.002724     -0.000194
Pd      8.14066      9.62043      9.44420         0.002347      0.004522      0.013694
Pd     14.01472      6.49889      8.52251        -0.003036     -0.000130      0.001061
Pd     12.62750      8.40552     11.57210        -0.000046      0.000214     -0.003710
Pd      8.76345     11.57380     13.41036        -0.000824     -0.002217      0.001014
Pd     13.87937     11.92100      8.96805        -0.004766     -0.003764     -0.001056
Pd     12.94161     10.70306     13.07310        -0.003703     -0.002250      0.000583
Pd     14.77457     10.43871     11.11627        -0.005673     -0.006058      0.000000
Pd     12.06162     10.89803     10.53654        -0.007688     -0.001864     -0.001646
Pd     11.44445     13.34784      9.92803         0.001676      0.003367      0.001552
Pd     13.59780     12.91901     11.62733         0.001194     -0.003790      0.000475
Pd     11.11637     12.62116     12.54185        -0.000863      0.003845      0.001532
Pd     10.94648     11.06337     14.81744        -0.000562      0.002321      0.000178
Pd     10.50562      9.72759     12.38145        -0.002250     -0.003250     -0.002665
Pd      9.08365      9.14172     14.43010         0.001575      0.000582      0.001889
Pd      8.80891     13.85954     12.04659        -0.006208      0.001863      0.011548
