152
# total energy = -1110.35816123 eVH     10.35389      5.87395      7.64558        -0.340111     -0.163419      1.024268
H     10.62451     15.10445      7.64558         0.384688      0.091166      0.943634
H     10.62451      5.87395     13.33282        -0.303094     -0.722663     -1.419869
H     10.35389     15.10445     13.33282        -0.643169      0.371262     -0.318420
H      7.64558     10.35389      5.87395         0.545184     -0.543534     -0.081197
H      7.64558     10.62451     15.10445         0.353126     -0.242829      0.038521
H     13.33282     10.62451      5.87395        -0.517270      0.606809     -0.012753
H     13.33282     10.35389     15.10445        -0.533480      0.417984      0.163762
H      5.87395      7.64558     10.35389         0.139580      0.488997      0.034106
H     15.10445      7.64558     10.62451         0.429572      0.834840      0.248089
H      5.87395     13.33282     10.62451        -0.231008     -0.439218      0.364418
H     15.10445     13.33282     10.35389         0.031270     -0.311926     -0.391964
H      5.87395     10.35389      7.64558        -0.071502     -0.349030      1.445412
H     15.10445     10.62451      7.64558         0.197995      0.398971      1.247635
H      5.87395     10.62451     13.33282        -0.139892     -0.334271     -1.117552
H     15.10445     10.35389     13.33282         0.534229      0.879517     -1.517327
H     10.35389      7.64558      5.87395        -0.528468      0.494331     -0.199850
H     10.62451      7.64558     15.10445        -0.134783      0.556886      0.202316
H     10.62451     13.33282      5.87395         0.910773     -1.409716     -0.333133
H     10.35389     13.33282     15.10445         0.292632     -0.544257     -0.069713
H      7.64558      5.87395     10.35389         0.725965      0.173086     -0.139111
H      7.64558     15.10445     10.62451         1.968545      0.827260      0.181309
H     13.33282      5.87395     10.62451        -2.693374     -1.003187     -0.410692
H     13.33282     15.10445     10.35389        -0.869478     -0.040873     -0.254385
H     12.45634     12.45634     19.01126         0.271823      0.257717     -0.227588
H     19.01126     19.01126     19.01126        -0.266730     -0.254653     -0.238035
H     19.01126     12.45634     12.45634        -0.282702      0.281047      0.186938
H     12.45634     19.01126     12.45634         0.256110     -0.252075      0.235765
C     10.35284      5.61067      6.59456         0.101391     -0.498071     -1.258883
C     10.62556     15.36773      6.59456         0.163621      0.770807     -0.860250
C     10.62556      5.61067     14.38384         0.169730     -0.323780      1.824717
C     10.35284     15.36773     14.38384         0.123716      0.402346      1.813141
C      6.59456     10.35284      5.61067        -1.116840     -0.111326     -0.843726
C      6.59456     10.62556     15.36773        -0.674040     -0.108490      0.725662
C     14.38384     10.62556      5.61067         0.889524     -0.115690     -0.999276
C     14.38384     10.35284     15.36773         1.208400      0.164824      1.105615
C      5.61067      6.59456     10.35284        -0.692705     -0.792495     -0.159820
C     15.36773      6.59456     10.62556         1.940546     -0.184572     -0.175967
C      5.61067     14.38384     10.62556        -1.572928     -0.004446     -0.110089
C     15.36773     14.38384     10.35284         0.486863      0.046177      0.033504
C      5.61067     10.35284      6.59456        -0.270219      0.207947     -1.367525
C     15.36773     10.62556      6.59456         0.271994     -0.191133     -0.998971
C      5.61067     10.62556     14.38384        -0.281742      0.374053      1.409639
C     15.36773     10.35284     14.38384         0.075073     -0.429578      1.905874
C     10.35284      6.59456      5.61067        -0.203969     -0.932613     -0.695232
C     10.62556      6.59456     15.36773        -0.095243     -0.821024      1.042067
C     10.62556     14.38384      5.61067        -0.482915      2.057238     -0.783695
C     10.35284     14.38384     15.36773        -0.298444      1.485644      0.464404
C      6.59456      5.61067     10.35284        -0.958962     -0.412019      0.075819
C      6.59456     15.36773     10.62556        -1.352091      0.337812     -0.335649
C     14.38384      5.61067     10.62556         1.305122     -1.115376      0.142485
C     14.38384     15.36773     10.35284         0.398533      0.316802      0.054577
C     10.40319      3.19606      7.29314         0.003332      0.312358     -0.096697
C     10.35913      4.25547      6.23373         0.136410     -0.502176      0.032306
C      0.08601      7.29314      7.29314        -0.054381     -0.310864     -0.432597
C      0.13007      6.23373      6.23373        -0.127600      0.727374      0.047575
C      0.08601      3.19606      3.19606        -0.110664      1.623722      0.174578
C      0.13007      4.25547      4.25547        -0.088533     -0.411500     -1.253281
C     10.40319      7.29314      3.19606         0.016961     -0.421852      0.132184
C     10.35913      6.23373      4.25547         0.259734      0.076936     -0.482522
C      7.29314     10.40319      3.19606        -1.663989      0.004686      0.327588
C      6.23373     10.35913      4.25547         0.653376      0.078396     -0.612964
C      7.29314      0.08601      7.29314        -0.396890     -0.008870     -0.294046
C      6.23373      0.13007      6.23373         0.616823     -0.052731      0.276886
C      3.19606      0.08601      3.19606         0.662604     -0.015031      0.190573
C      4.25547      0.13007      4.25547        -0.375739     -0.059473     -0.481497
C      3.19606     10.40319      7.29314         0.384070      0.018051     -0.321467
C      4.25547     10.35913      6.23373        -0.730107      0.057465      0.377636
C      3.19606      7.29314     10.40319         0.308109     -0.220999     -0.005959
C      4.25547      6.23373     10.35913         0.056107      0.648901      0.094290
C      7.29314      7.29314      0.08601        -0.719869     -0.592964     -0.014913
C      6.23373      6.23373      0.13007         0.791146      1.153396     -0.078958
C      3.19606      3.19606      0.08601         0.805136      0.484896      0.013946
C      4.25547      4.25547      0.13007        -0.332399     -1.699883     -0.115804
C      7.29314      3.19606     10.40319        -0.333886      0.279704     -0.003286
C      6.23373      4.25547     10.35913         0.523292     -0.039965      0.228752
O     10.43466      3.58206      8.50569        -0.047101      0.180001      0.257484
O     10.54374     17.39634      8.50569         0.041106     -0.231183      0.485327
O     10.54374      3.58206     12.47271         0.086172     -0.056696     -0.044232
O     10.43466     17.39634     12.47271        -0.022920     -0.139814     -0.282158
O      8.50569     10.43466      3.58206         0.985180      0.181371      0.390833
O      8.50569     10.54374     17.39634         0.564178      0.083380     -0.226481
O     12.47271     10.54374      3.58206        -0.430884     -0.037906      0.189462
O     12.47271     10.43466     17.39634        -0.528072     -0.071191     -0.201355
O      3.58206      8.50569     10.43466         0.178085      0.442390     -0.031438
O     17.39634      8.50569     10.54374        -0.227263      0.714986      0.041381
O      3.58206     12.47271     10.54374         0.158504     -0.662851      0.023782
O     17.39634     12.47271     10.43466        -0.185263     -0.485646     -0.013631
O      3.58206     10.43466      8.50569         0.219956     -0.058943      0.399965
O     17.39634     10.54374      8.50569        -0.168809      0.036501      0.409067
O      3.58206     10.54374     12.47271         0.142537      0.020644     -0.309512
O     17.39634     10.43466     12.47271         0.066529     -0.050632     -0.089710
O     10.43466      8.50569      3.58206        -0.002621      0.276407      0.177207
O     10.54374      8.50569     17.39634         0.071240      0.441028     -0.184089
O     10.54374     12.47271      3.58206        -0.222874     -0.966291      0.347969
O     10.43466     12.47271     17.39634        -0.085366     -0.448877     -0.244697
O      8.50569      3.58206     10.43466         0.499743      0.194918     -0.013757
O      8.50569     17.39634     10.54374         0.656295     -0.192249      0.023071
O     12.47271      3.58206     10.54374        -0.733880      0.277296      0.036591
O     12.47271     17.39634     10.43466        -0.445429     -0.198383     -0.044590
O     11.90042     11.90042     19.56718        -0.344781     -0.307549      0.258299
O     19.56718     19.56718     19.56718         0.326170      0.310438      0.280979
O     19.56718     11.90042     11.90042         0.278820     -0.278913     -0.141395
O     11.90042     19.56718     11.90042        -0.307539      0.288620     -0.234160
O      9.45224      1.03696      9.45224        -0.056488      0.070328     -0.049223
O      1.03696      9.45224      9.45224         0.035086     -0.072408     -0.073965
O      1.03696      1.03696      1.03696         0.056713      0.137509      0.105662
O      9.45224      9.45224      1.03696        -0.130158     -0.088377      0.105181
Zr     10.48920      2.52580     10.48920         0.140985     -0.162555     -0.160613
Zr     10.48920     18.45260     10.48920        -0.090594      0.178434     -0.039689
Zr     10.48920     10.48920      2.52580         0.326378     -0.311379     -0.198344
Zr     10.48920     10.48920     18.45260         0.001280     -0.083194      0.211413
Zr      2.52580     10.48920     10.48920        -0.063496      0.160481     -0.050110
Zr     18.45260     10.48920     10.48920         0.134365     -0.120860     -0.246491
Ir     12.06152     12.49196     10.46432        -0.004112     -0.005707      0.000271
Ir     11.13903      7.41766     10.33615         0.037788     -0.003098     -0.006828
Ir      8.78726      7.40579     11.59682         0.029817     -0.022379     -0.012409
Ir      7.48395     11.67012      7.64953         0.001550     -0.011255      0.006493
Ir     11.59614     12.09761      7.12561         0.008022      0.012567      0.013841
Ir     13.72821      8.96898      7.57176         0.018517      0.013839     -0.018836
Ir     12.51061     13.95342      8.42216        -0.013959     -0.009780     -0.002189
Ir      9.71528     11.26833      5.57210        -0.011006      0.004989     -0.003041
Ir      9.08782     13.47308      7.07408         0.001220      0.010132     -0.002302
Ir      9.29428      9.66323      7.54207        -0.010772      0.000034     -0.010925
Ir     13.24340      7.04605     11.94745         0.015530     -0.005724      0.016426
Ir     13.52130      7.02092      9.12410         0.040202      0.005441      0.001334
Ir     11.00327      7.61223     12.87450         0.024786     -0.003809     -0.013845
Ir     13.61800     11.55524      8.75919        -0.006262      0.005112     -0.004567
Ir     11.50618      9.66769      6.24136        -0.000247     -0.017929     -0.001878
Ir      7.13773      9.21772      8.95220        -0.006211     -0.024286     -0.010585
Ir     14.05537     11.41386     11.66914         0.009185      0.007304     -0.008513
Ir     11.64743      9.87986      8.91277         0.001040      0.000254     -0.010360
Ir      9.41898      9.54175     10.26137         0.014934      0.007648     -0.002842
Ir     13.85013      9.38659     10.19539         0.005720      0.006603     -0.001959
Ir     13.79862      9.14945     12.92626        -0.004295     -0.006494     -0.016551
Ir     11.67773      9.76597     11.58341        -0.001229      0.004359     -0.012602
Ir      9.91310     11.77009      8.98247         0.003755     -0.017013      0.000674
Ir      9.00846      7.44733      8.86675         0.034669     -0.024070     -0.031960
Ir     11.47300      7.60720      7.80854         0.045210     -0.020981     -0.024273
Ir      9.23705      9.51978     13.02636         0.011120     -0.007645     -0.005379
Ir      7.53511     13.93774      8.98636        -0.007372     -0.009371      0.007672
Ir     10.91846     14.14000     11.94216        -0.010320     -0.025083      0.002541
Ir     10.13153     14.18650      9.52001         0.001232     -0.012635      0.006043
Ir      9.80406     11.72067     11.72887         0.006235     -0.019469     -0.001334
Ir      7.59051     11.61953     10.20813        -0.001557     -0.021685      0.011396
Ir      8.38508     13.78568     11.58444        -0.012925     -0.011986      0.002486
Ir      7.52988     11.62835     12.83104        -0.003872     -0.029343      0.000884
Ir      9.76158     11.65221     14.34578         0.006045     -0.013833     -0.007026
Ir     13.51057     13.87421     12.19578        -0.011251      0.000249     -0.003179
Ir     11.99599     12.06837     13.09126         0.000247     -0.007303     -0.013530
Ir     11.56310      9.83155     14.21773         0.000484     -0.011202     -0.001015
Ir      7.12978      9.43325     11.51095         0.008404     -0.026119     -0.001491
