152
# total energy = -1061.44497173 eVH     10.35389      5.87395      7.64558        -0.199854      0.128744      1.019472
H     10.62451     15.10445      7.64558         0.444162     -0.120495      0.787514
H     10.62451      5.87395     13.33282        -0.089072      0.101488     -0.451937
H     10.35389     15.10445     13.33282         0.085415     -0.193292     -0.406607
H      7.64558     10.35389      5.87395         0.884807      0.202701      0.222246
H      7.64558     10.62451     15.10445         0.210255     -0.023195     -0.069972
H     13.33282     10.62451      5.87395        -0.596527     -0.047049      0.169226
H     13.33282     10.35389     15.10445        -0.323493     -0.054629     -0.076721
H      5.87395      7.64558     10.35389         0.127214      0.362917     -0.077996
H     15.10445      7.64558     10.62451        -0.137647      0.437320      0.175219
H      5.87395     13.33282     10.62451         0.107395     -0.644481      0.129197
H     15.10445     13.33282     10.35389        -0.228623     -0.433485      0.091377
H      5.87395     10.35389      7.64558         0.154066      0.287342      0.389996
H     15.10445     10.62451      7.64558        -0.140715     -0.356468      0.734601
H      5.87395     10.62451     13.33282         0.036343      0.149309     -0.711427
H     15.10445     10.35389     13.33282         0.074330     -0.241674     -0.728277
H     10.35389      7.64558      5.87395        -0.161533      0.447210      0.212948
H     10.62451      7.64558     15.10445         0.369546      0.609971     -0.120169
H     10.62451     13.33282      5.87395         0.065168     -0.557036      0.099588
H     10.35389     13.33282     15.10445         0.259229     -0.713944     -0.090200
H      7.64558      5.87395     10.35389         0.490119      0.145928     -0.156397
H      7.64558     15.10445     10.62451         0.399421     -0.144643      0.451480
H     13.33282      5.87395     10.62451        -0.392373      0.161354     -0.077772
H     13.33282     15.10445     10.35389        -0.584907     -0.292718      0.121034
H     12.45634     12.45634     19.01126         0.230553      0.265624     -0.249252
H     19.01126     19.01126     19.01126        -0.262106     -0.259152     -0.230552
H     19.01126     12.45634     12.45634        -0.234734      0.276287      0.234935
H     12.45634     19.01126     12.45634         0.275592     -0.210727      0.256186
C     10.35284      5.61067      6.59456         0.271357     -0.302838     -0.772027
C     10.62556     15.36773      6.59456        -0.190539      0.634734     -0.306626
C     10.62556      5.61067     14.38384         0.251382     -0.233776      0.487591
C     10.35284     15.36773     14.38384        -0.111587      0.280440      0.289685
C      6.59456     10.35284      5.61067        -0.832718     -0.092419     -0.242416
C      6.59456     10.62556     15.36773        -0.516841      0.047013      0.350093
C     14.38384     10.62556      5.61067         0.783957     -0.031186     -0.627578
C     14.38384     10.35284     15.36773         0.268283     -0.071253      0.347906
C      5.61067      6.59456     10.35284        -0.410617     -0.359063      0.079139
C     15.36773      6.59456     10.62556         0.322440     -0.466434     -0.062503
C      5.61067     14.38384     10.62556        -0.151764      0.479841     -0.420741
C     15.36773     14.38384     10.35284         0.407035      0.815140     -0.095586
C      5.61067     10.35284      6.59456        -0.320779     -0.175322     -0.106017
C     15.36773     10.62556      6.59456         0.208466      0.278545     -0.579414
C      5.61067     10.62556     14.38384        -0.346876     -0.040422      1.217053
C     15.36773     10.35284     14.38384         0.294359     -0.067173      0.987038
C     10.35284      6.59456      5.61067         0.082042     -0.239386     -0.502064
C     10.62556      6.59456     15.36773         0.013654     -0.776801      0.112488
C     10.62556     14.38384      5.61067        -0.382749      0.195699     -0.927251
C     10.35284     14.38384     15.36773        -0.259294      0.833488      0.268634
C      6.59456      5.61067     10.35284        -0.354059     -0.291445      0.259525
C      6.59456     15.36773     10.62556        -0.251195      0.513330     -0.072036
C     14.38384      5.61067     10.62556         0.478105     -0.383879      0.059273
C     14.38384     15.36773     10.35284         0.976125      0.274761     -0.067145
C     10.40319      3.19606      7.29314         0.007839      0.547181     -0.312536
C     10.35913      4.25547      6.23373        -0.012960     -0.522315      0.407362
C      0.08601      7.29314      7.29314        -0.015528     -0.839691     -0.566380
C      0.13007      6.23373      6.23373        -0.194643      0.877759      0.152278
C      0.08601      3.19606      3.19606        -0.009731      0.416634      0.389812
C      0.13007      4.25547      4.25547         0.067296     -0.235865     -0.564596
C     10.40319      7.29314      3.19606        -0.045401     -1.005032      0.793221
C     10.35913      6.23373      4.25547         0.018984      0.332638     -0.233549
C      7.29314     10.40319      3.19606        -1.335590     -0.084761      0.328127
C      6.23373     10.35913      4.25547         0.263817      0.017409     -0.703829
C      7.29314      0.08601      7.29314        -0.831685     -0.002477     -0.408603
C      6.23373      0.13007      6.23373         0.325239      0.052452      0.126457
C      3.19606      0.08601      3.19606         0.319631      0.000046      0.434720
C      4.25547      0.13007      4.25547        -0.285212     -0.032056     -0.175946
C      3.19606     10.40319      7.29314         0.493297     -0.040730     -1.032109
C      4.25547     10.35913      6.23373        -0.325803     -0.076692      0.096994
C      3.19606      7.29314     10.40319         1.074339     -0.444111      0.013592
C      4.25547      6.23373     10.35913        -0.194038      0.168352     -0.000512
C      7.29314      7.29314      0.08601        -0.516356     -0.280853     -0.007436
C      6.23373      6.23373      0.13007         0.162432      0.191487     -0.159167
C      3.19606      3.19606      0.08601         0.358696      0.887314     -0.008349
C      4.25547      4.25547      0.13007        -0.600331     -0.176343      0.037695
C      7.29314      3.19606     10.40319        -0.200184      0.491966      0.026686
C      6.23373      4.25547     10.35913        -0.010735     -0.366802      0.043394
O     10.43466      3.58206      8.50569        -0.023581      0.133068      0.388896
O     10.54374     17.39634      8.50569         0.040681      0.051334      0.369223
O     10.54374      3.58206     12.47271         0.040569      0.195124     -0.575174
O     10.43466     17.39634     12.47271         0.030368     -0.025111     -0.484273
O      8.50569     10.43466      3.58206         0.775531     -0.059776     -0.028294
O      8.50569     10.54374     17.39634         0.855609      0.021456     -0.163998
O     12.47271     10.54374      3.58206        -0.347625      0.035558      0.082866
O     12.47271     10.43466     17.39634        -0.378532     -0.036719      0.038830
O      3.58206      8.50569     10.43466        -0.100856      0.265653     -0.079588
O     17.39634      8.50569     10.54374        -0.103140      0.444903      0.044632
O      3.58206     12.47271     10.54374         0.150914     -0.825916     -0.021437
O     17.39634     12.47271     10.43466        -0.237598     -0.631923     -0.017432
O      3.58206     10.43466      8.50569         0.126543     -0.032122      0.793556
O     17.39634     10.54374      8.50569         0.002838      0.036950      0.337025
O      3.58206     10.54374     12.47271         0.066067      0.018424     -0.458588
O     17.39634     10.43466     12.47271         0.058481      0.012354     -0.239487
O     10.43466      8.50569      3.58206        -0.054263      0.544980     -0.069629
O     10.54374      8.50569     17.39634         0.028940      0.862739     -0.203805
O     10.54374     12.47271      3.58206         0.070513     -0.368423      0.071368
O     10.43466     12.47271     17.39634        -0.055449     -0.641766     -0.198370
O      8.50569      3.58206     10.43466         0.352707      0.084530     -0.051716
O      8.50569     17.39634     10.54374         0.568493     -0.169680     -0.020007
O     12.47271      3.58206     10.54374        -0.367740      0.049016      0.036675
O     12.47271     17.39634     10.43466        -0.825812     -0.143746      0.076380
O     11.90042     11.90042     19.56718        -0.244217     -0.283092      0.237923
O     19.56718     19.56718     19.56718         0.300456      0.292511      0.250104
O     19.56718     11.90042     11.90042         0.228676     -0.305370     -0.275434
O     11.90042     19.56718     11.90042        -0.274876      0.180687     -0.277121
O      9.45224      1.03696      9.45224        -0.107393      0.085994     -0.086302
O      1.03696      9.45224      9.45224         0.121047     -0.151207     -0.173797
O      1.03696      1.03696      1.03696         0.138596      0.209460     -0.002280
O      9.45224      9.45224      1.03696        -0.211512     -0.173012      0.028036
Zr     10.48920      2.52580     10.48920        -0.005038     -0.233196      0.146283
Zr     10.48920     18.45260     10.48920        -0.297032      0.311717     -0.152058
Zr     10.48920     10.48920      2.52580         0.366470      0.382992     -0.229156
Zr     10.48920     10.48920     18.45260         0.001939      0.022725      0.468884
Zr      2.52580     10.48920     10.48920        -0.560199      0.018943      0.339854
Zr     18.45260     10.48920     10.48920         0.271147     -0.141336      0.002214
Pd      9.22474     14.67098      9.22656         0.006925     -0.006637      0.003717
Pd      8.47054     13.20783     13.82471         0.002669      0.000665      0.005188
Pd     12.14171     14.13434      8.66296        -0.000265     -0.013164      0.002525
Pd     12.24868     12.75572     10.89484        -0.008864     -0.011851     -0.001922
Pd     11.76883      7.07370     11.87216         0.004246     -0.012068      0.006272
Pd     11.17908     15.31055     10.95601        -0.002547     -0.000428      0.008242
Pd      9.60623     13.16492     11.40753         0.001386     -0.004776     -0.007246
Pd     14.02034     12.40242      7.97217        -0.000841      0.007208      0.005195
Pd     11.57105     11.78177      6.74980        -0.000857     -0.009667      0.005149
Pd      7.41405      8.53382      7.19296         0.007224     -0.000020      0.007980
Pd      8.59637     12.10871      6.91922         0.008111     -0.002936     -0.006149
Pd      9.70092      9.91195      7.99766         0.002444      0.008360     -0.013452
Pd      8.47464     14.75933      6.58677         0.006727      0.000857      0.000340
Pd     12.00825      9.06861      6.83082         0.003029      0.005872      0.004644
Pd      9.89672     10.06735      5.40212        -0.002918      0.015123      0.002325
Pd      6.89535      9.21551     12.17221         0.001856      0.010531      0.004864
Pd     12.40099      6.53931      7.65844         0.004786      0.000126     -0.007301
Pd      5.56630     10.69216     10.11098        -0.012670     -0.004530      0.003745
Pd      7.56647      6.66003     12.69319         0.002021     -0.001056     -0.000027
Ir     11.27474      9.53397     12.83389        -0.014414     -0.007068      0.012536
Ir     13.06418      9.22881     11.07003         0.000744      0.006081      0.000321
Ir      9.14672      8.41966     13.75395        -0.000496     -0.009988      0.004375
Ir     10.27334     10.37130     15.06357        -0.004931     -0.012057      0.002329
Ir      7.09661     11.91150     11.85156         0.019774     -0.012241      0.000335
Ir     14.40026     11.18505     10.31306        -0.009499     -0.005412      0.003103
Ir     12.26248     10.62880      9.04919        -0.001677      0.005712      0.011530
Ir      8.92063     10.78751     12.89100        -0.011612      0.012377     -0.008276
Ir     10.01140     10.29615     10.61040        -0.007746      0.001437     -0.000274
Ir     13.29435     11.18819     12.60353         0.000323     -0.002831      0.000331
Ir     11.09170     12.03814     13.31981         0.001212     -0.005631      0.004404
Ir      7.94686     11.74296      9.51399        -0.001631      0.020190      0.010405
Ir     11.26217      8.16297      9.42953         0.002802      0.000695      0.004308
Ir      6.98144     13.62225      8.39439         0.001584     -0.007718      0.026918
Ir      9.04339      7.29150      8.79226        -0.007016     -0.000832     -0.008247
Ir      7.72835      9.21987      9.70757        -0.002293      0.008757     -0.005869
Ir     10.35178     12.34813      8.98030        -0.002102      0.010471      0.008441
Ir      9.31598      7.90237     11.24700        -0.003288     -0.011609      0.007294
Ir     13.73022      8.48251      8.78085         0.012494      0.009021     -0.004948
