152
# total energy = -1093.12986670 eVH     10.35389      5.87395      7.64558         0.095400     -0.119944      1.292481
H     10.62451     15.10445      7.64558        -0.177571      0.096479      1.414192
H     10.62451      5.87395     13.33282         0.157291     -0.047175     -1.138003
H     10.35389     15.10445     13.33282        -0.005658     -0.055539     -0.922165
H      7.64558     10.35389      5.87395         0.492021      0.018370     -0.068963
H      7.64558     10.62451     15.10445         0.411049      0.003898     -0.003545
H     13.33282     10.62451      5.87395        -0.660518     -0.040646      0.002742
H     13.33282     10.35389     15.10445        -0.423925     -0.001375     -0.001522
H      5.87395      7.64558     10.35389        -0.135382      1.337132      0.089260
H     15.10445      7.64558     10.62451        -0.010336      0.491418      0.032176
H      5.87395     13.33282     10.62451        -0.064350     -0.232926      0.034227
H     15.10445     13.33282     10.35389         0.239105     -1.617691      0.115498
H      5.87395     10.35389      7.64558        -0.111217     -0.667098      0.484731
H     15.10445     10.62451      7.64558         0.468379      0.825167      0.137334
H      5.87395     10.62451     13.33282        -0.023940     -0.191619     -0.281216
H     15.10445     10.35389     13.33282        -0.073039      0.219973     -0.111322
H     10.35389      7.64558      5.87395        -0.157453      0.441231      0.041534
H     10.62451      7.64558     15.10445         0.032309      0.523613      0.266820
H     10.62451     13.33282      5.87395         0.019725     -0.455170     -0.183097
H     10.35389     13.33282     15.10445        -0.169009     -0.555901      0.191308
H      7.64558      5.87395     10.35389         0.459350     -0.025559     -0.049804
H      7.64558     15.10445     10.62451         0.302032      0.024173     -0.030752
H     13.33282      5.87395     10.62451        -0.199649     -0.090388     -0.015498
H     13.33282     15.10445     10.35389        -0.513581      0.122691     -0.024391
H     12.45634     12.45634     19.01126         0.265318      0.246344     -0.244238
H     19.01126     19.01126     19.01126        -0.262643     -0.242808     -0.252369
H     19.01126     12.45634     12.45634        -0.263527      0.264031      0.232840
H     12.45634     19.01126     12.45634         0.273833     -0.254976      0.226493
C     10.35284      5.61067      6.59456        -0.203996     -0.285988     -1.760849
C     10.62556     15.36773      6.59456         0.444257      0.111741     -1.883096
C     10.62556      5.61067     14.38384        -0.356731     -0.109049      1.683838
C     10.35284     15.36773     14.38384         0.259323      0.140279      1.662544
C      6.59456     10.35284      5.61067        -0.871066     -0.109563     -0.305634
C      6.59456     10.62556     15.36773        -0.825634     -0.006325      0.102939
C     14.38384     10.62556      5.61067         1.027356      0.035838     -0.229234
C     14.38384     10.35284     15.36773         0.783516     -0.011613      0.181059
C      5.61067      6.59456     10.35284        -0.081518     -1.605126      0.031275
C     15.36773      6.59456     10.62556         0.284778     -0.955038      0.033915
C      5.61067     14.38384     10.62556        -0.397156      0.755674      0.036071
C     15.36773     14.38384     10.35284         0.032071      1.856955     -0.086803
C      5.61067     10.35284      6.59456        -0.712162      0.225217     -1.799966
C     15.36773     10.62556      6.59456         0.759070     -0.217731     -1.982285
C      5.61067     10.62556     14.38384        -0.658480      0.095048      1.657402
C     15.36773     10.35284     14.38384         0.598285     -0.071661      1.439174
C     10.35284      6.59456      5.61067         0.029185     -1.572710     -0.772989
C     10.62556      6.59456     15.36773        -0.039049     -1.860646      0.733762
C     10.62556     14.38384      5.61067         0.099726      1.811683     -0.868102
C     10.35284     14.38384     15.36773         0.038068      1.873323      0.644627
C      6.59456      5.61067     10.35284        -0.801732     -0.816209     -0.028901
C      6.59456     15.36773     10.62556        -1.040880      0.561294      0.071360
C     14.38384      5.61067     10.62556         0.994810     -0.735709      0.087463
C     14.38384     15.36773     10.35284         0.899255      0.955287      0.011339
C     10.40319      3.19606      7.29314        -0.004807      0.527753     -0.545938
C     10.35913      4.25547      6.23373        -0.019780     -0.832066      0.516062
C      0.08601      7.29314      7.29314         0.018258     -0.476224     -0.584959
C      0.13007      6.23373      6.23373         0.045019      0.886675      0.459369
C      0.08601      3.19606      3.19606         0.024687      0.690602      0.444668
C      0.13007      4.25547      4.25547        -0.043181     -0.757164     -0.485802
C     10.40319      7.29314      3.19606        -0.012050     -0.739343      0.491023
C     10.35913      6.23373      4.25547         0.017162      0.579827     -0.509226
C      7.29314     10.40319      3.19606        -0.303250     -0.008551      0.566945
C      6.23373     10.35913      4.25547         0.180552     -0.072997     -0.168870
C      7.29314      0.08601      7.29314        -0.236420     -0.030957     -0.393514
C      6.23373      0.13007      6.23373         0.153794     -0.098477      0.369610
C      3.19606      0.08601      3.19606         0.403617      0.010934      0.440990
C      4.25547      0.13007      4.25547        -0.193105      0.073071     -0.211492
C      3.19606     10.40319      7.29314         0.247771      0.028328     -0.461769
C      4.25547     10.35913      6.23373        -0.168954      0.108852      0.370786
C      3.19606      7.29314     10.40319         0.185504     -0.313493      0.002080
C      4.25547      6.23373     10.35913        -0.584186      0.190466      0.049890
C      7.29314      7.29314      0.08601        -0.587475     -0.469387      0.004393
C      6.23373      6.23373      0.13007         0.121499      0.215774     -0.058233
C      3.19606      3.19606      0.08601         0.558869      0.425024      0.001501
C      4.25547      4.25547      0.13007        -0.057561     -0.095544     -0.031746
C      7.29314      3.19606     10.40319        -0.214076      0.363945      0.001970
C      6.23373      4.25547     10.35913         0.636187     -0.259474      0.023282
O     10.43466      3.58206      8.50569         0.014079      0.231885      0.484049
O     10.54374     17.39634      8.50569        -0.032096     -0.237144      0.514538
O     10.54374      3.58206     12.47271         0.078491      0.157402     -0.379990
O     10.43466     17.39634     12.47271        -0.106474     -0.141597     -0.374324
O      8.50569     10.43466      3.58206         0.395744     -0.020838      0.062260
O      8.50569     10.54374     17.39634         0.453636      0.059549     -0.121871
O     12.47271     10.54374      3.58206        -0.505395     -0.010796      0.112360
O     12.47271     10.43466     17.39634        -0.442170     -0.053372     -0.118542
O      3.58206      8.50569     10.43466         0.169159      0.421697     -0.050197
O     17.39634      8.50569     10.54374        -0.086412      0.562054      0.046124
O      3.58206     12.47271     10.54374         0.050053     -0.518183      0.042337
O     17.39634     12.47271     10.43466        -0.176848     -0.464435     -0.021733
O      3.58206     10.43466      8.50569         0.172698     -0.017816      0.473468
O     17.39634     10.54374      8.50569        -0.125524     -0.012854      0.457086
O      3.58206     10.54374     12.47271         0.173740      0.086858     -0.454072
O     17.39634     10.43466     12.47271        -0.202500     -0.079095     -0.562345
O     10.43466      8.50569      3.58206         0.049690      0.622035      0.264044
O     10.54374      8.50569     17.39634         0.060332      0.499283     -0.214591
O     10.54374     12.47271      3.58206        -0.015066     -0.651892      0.274161
O     10.43466     12.47271     17.39634        -0.031288     -0.529113     -0.223914
O      8.50569      3.58206     10.43466         0.514800      0.149933     -0.029936
O      8.50569     17.39634     10.54374         0.615352     -0.094660      0.046824
O     12.47271      3.58206     10.54374        -0.631923      0.114108      0.028813
O     12.47271     17.39634     10.43466        -0.495213     -0.140658     -0.016264
O     11.90042     11.90042     19.56718        -0.311768     -0.284647      0.270957
O     19.56718     19.56718     19.56718         0.311047      0.270011      0.289519
O     19.56718     11.90042     11.90042         0.316854     -0.312625     -0.235621
O     11.90042     19.56718     11.90042        -0.331701      0.281061     -0.225609
O      9.45224      1.03696      9.45224        -0.039609      0.054989     -0.065834
O      1.03696      9.45224      9.45224         0.028085     -0.083058     -0.059989
O      1.03696      1.03696      1.03696         0.027394      0.048694      0.133226
O      9.45224      9.45224      1.03696        -0.031586     -0.086292      0.132524
Zr     10.48920      2.52580     10.48920        -0.100893     -0.120705     -0.008952
Zr     10.48920     18.45260     10.48920         0.125631      0.192909     -0.101943
Zr     10.48920     10.48920      2.52580         0.001669      0.096765     -0.322479
Zr     10.48920     10.48920     18.45260        -0.021420     -0.011246      0.148912
Zr      2.52580     10.48920     10.48920        -0.029859     -0.024244     -0.062203
Zr     18.45260     10.48920     10.48920         0.112452      0.115362     -0.155638
Pd     12.96223      8.07840      7.66837         0.073530      0.024160     -0.063173
Pd      9.57398     14.58784     11.74740        -0.003956      0.006092     -0.022809
Pd     12.34276     10.90575     10.42179        -0.048694      0.007067      0.135454
Pd     14.69143     10.03320     11.58126        -0.042152     -0.051575     -0.033497
Pd     10.97383      9.30189      6.17582        -0.017286      0.026104     -0.006415
Pd      6.92538      8.50496      8.97513         0.054676     -0.008471      0.031738
Ir     10.26604     11.86185     11.75296         0.076119     -0.048478      0.044360
Ir     12.92682      8.29960     10.34085         0.033339      0.009749     -0.033409
Ir     12.31392     11.00210      7.73909        -0.014414     -0.060875     -0.084209
Ir      9.68134     14.39330      9.15084        -0.022439     -0.048773      0.039631
Ir     10.80723      9.19632     11.72586         0.026214      0.017311     -0.106884
Ir      8.69970     10.06351      7.76978         0.051836     -0.056143      0.003823
Ir     13.87519     12.53962      9.03665         0.021692     -0.025746     -0.013686
Ir     11.97428     13.58307      7.81004        -0.013209      0.012308     -0.028236
Ir     14.30773      9.91425      9.02367         0.008092     -0.012555     -0.002253
Ir      9.22348      7.44462     10.39848         0.022056     -0.048780     -0.051922
Ir      8.16573     12.72633      7.82800        -0.002966      0.070764      0.032600
Ir      9.17192      7.58782      7.82579        -0.006951      0.097304      0.038884
Ir     11.85401     13.51829     13.02577         0.064751     -0.006298     -0.005443
Ir     11.40852      6.70360     11.72333         0.013276     -0.044205      0.019329
Ir     10.25312     11.82179      9.07976        -0.100238     -0.007267      0.026124
Ir     12.92532      8.33532     12.98638        -0.015123     -0.008973     -0.043123
Ir     10.83385      9.16172      8.99649        -0.063387     -0.025087     -0.035451
Ir     11.79597     13.59673     10.40256        -0.017748     -0.032386      0.057992
Ir     13.83965     12.64015     11.78416        -0.086148     -0.047403      0.038001
Ir     12.39336     10.99149     13.08252         0.004858      0.061056     -0.070553
Ir     10.13892     11.70351      6.49673         0.010142     -0.025246     -0.050638
Ir     11.33418      6.59002      9.21649        -0.083872     -0.011480      0.040866
Ir      7.20355      8.35832     11.79643        -0.022806      0.030907      0.009460
Ir      8.18692     12.71508     10.43313         0.017192      0.039378     -0.052892
Ir     10.90718      9.26534     14.27825        -0.053325      0.006802      0.005878
Ir      8.10243     12.53555     12.98540        -0.024845      0.037075      0.092367
Ir      6.60124     11.21930      9.09478        -0.118187      0.000123     -0.036625
Ir      8.67003     10.03694     13.06645        -0.006864      0.025377      0.008580
Ir      6.59260     10.90735     11.55564        -0.046966      0.015381      0.010862
Ir      9.13205      7.45882     13.04960         0.022278      0.004520     -0.002307
Ir     10.21668     11.65174     14.35824        -0.054996      0.055231      0.031135
Ir      8.72586     10.06353     10.41185         0.019980     -0.074542     -0.083396
