152
# total energy = -1060.20106658 eVH     10.35389      5.87395      7.64558        -0.304895      0.103865      1.084232
H     10.62451     15.10445      7.64558         0.080393     -0.065241      0.896285
H     10.62451      5.87395     13.33282        -0.265537      0.071669     -0.775460
H     10.35389     15.10445     13.33282         0.091044     -0.301331     -0.817037
H      7.64558     10.35389      5.87395         0.894891     -0.198080      0.209011
H      7.64558     10.62451     15.10445         0.309872     -0.029107     -0.062548
H     13.33282     10.62451      5.87395        -0.884407      0.208153      0.220159
H     13.33282     10.35389     15.10445        -0.283316     -0.029585     -0.061637
H      5.87395      7.64558     10.35389         0.093063      0.425083     -0.015016
H     15.10445      7.64558     10.62451        -0.040033      0.436914     -0.028291
H      5.87395     13.33282     10.62451        -0.022381     -0.954994      0.077875
H     15.10445     13.33282     10.35389        -0.082918     -0.329374      0.001770
H      5.87395     10.35389      7.64558         0.320112      0.060493      0.368036
H     15.10445     10.62451      7.64558        -0.119885     -0.159292      0.651503
H      5.87395     10.62451     13.33282        -0.055938      0.448608     -0.598667
H     15.10445     10.35389     13.33282         0.229729     -0.635882     -0.869223
H     10.35389      7.64558      5.87395        -0.021981      0.495041      0.342640
H     10.62451      7.64558     15.10445         0.348022      0.806483      0.001535
H     10.62451     13.33282      5.87395         0.152107     -0.559567      0.193301
H     10.35389     13.33282     15.10445         0.036445     -0.290326     -0.167568
H      7.64558      5.87395     10.35389         0.372937      0.113541      0.064593
H      7.64558     15.10445     10.62451         0.379064     -0.127825      0.180531
H     13.33282      5.87395     10.62451        -0.305711      0.136370     -0.013900
H     13.33282     15.10445     10.35389        -0.661172     -0.107845      0.137270
H     12.45634     12.45634     19.01126         0.260262      0.271582     -0.226089
H     19.01126     19.01126     19.01126        -0.247556     -0.268757     -0.244081
H     19.01126     12.45634     12.45634        -0.248511      0.272216      0.237437
H     12.45634     19.01126     12.45634         0.290590     -0.235208      0.234600
C     10.35284      5.61067      6.59456         0.404221     -0.424803     -1.350865
C     10.62556     15.36773      6.59456        -0.167730      0.612341     -0.652553
C     10.62556      5.61067     14.38384         0.365517     -0.286913      0.762703
C     10.35284     15.36773     14.38384        -0.200681      0.220716      1.015737
C      6.59456     10.35284      5.61067        -1.392820      0.034546     -0.226984
C      6.59456     10.62556     15.36773        -0.656492      0.064463      0.357299
C     14.38384     10.62556      5.61067         1.307948     -0.184822     -0.629853
C     14.38384     10.35284     15.36773         0.323987     -0.131752      0.349419
C      5.61067      6.59456     10.35284        -0.272822     -0.679714     -0.028600
C     15.36773      6.59456     10.62556         0.404060     -0.863832      0.025378
C      5.61067     14.38384     10.62556        -0.155083      1.181294     -0.207198
C     15.36773     14.38384     10.35284         0.507002      0.704558     -0.035481
C      5.61067     10.35284      6.59456        -0.369650     -0.104710     -0.784917
C     15.36773     10.62556      6.59456         0.409522      0.108144     -0.682713
C      5.61067     10.62556     14.38384        -0.410640     -0.162814      1.210353
C     15.36773     10.35284     14.38384         0.233959      0.224493      1.417024
C     10.35284      6.59456      5.61067        -0.070616     -0.740820     -0.551562
C     10.62556      6.59456     15.36773        -0.149139     -0.996648      0.376031
C     10.62556     14.38384      5.61067        -0.490243      0.366919     -0.741910
C     10.35284     14.38384     15.36773        -0.175409      0.774943      0.519451
C      6.59456      5.61067     10.35284        -0.564816     -0.334877      0.002882
C      6.59456     15.36773     10.62556        -0.361644      0.451205      0.062713
C     14.38384      5.61067     10.62556         0.431463     -0.303509      0.004574
C     14.38384     15.36773     10.35284         1.129320      0.490524     -0.082792
C     10.40319      3.19606      7.29314        -0.006523      0.768994     -0.319823
C     10.35913      4.25547      6.23373         0.017691     -0.371476      0.281691
C      0.08601      7.29314      7.29314        -0.024190     -0.383707     -0.501529
C      0.13007      6.23373      6.23373        -0.054187      0.883528      0.093218
C      0.08601      3.19606      3.19606        -0.008648      0.687776      0.264642
C      0.13007      4.25547      4.25547         0.045715     -0.266031     -0.547707
C     10.40319      7.29314      3.19606        -0.064861     -1.098572      0.598851
C     10.35913      6.23373      4.25547        -0.048851      0.327236     -0.184443
C      7.29314     10.40319      3.19606        -1.108178     -0.057154      0.204982
C      6.23373     10.35913      4.25547         0.382863      0.100357     -0.517736
C      7.29314      0.08601      7.29314        -0.475337      0.027633     -0.453088
C      6.23373      0.13007      6.23373         0.172829      0.119625      0.114757
C      3.19606      0.08601      3.19606         0.686281      0.020515      0.166389
C      4.25547      0.13007      4.25547        -0.168858     -0.051235     -0.360077
C      3.19606     10.40319      7.29314         0.371610     -0.025987     -0.949640
C      4.25547     10.35913      6.23373        -0.133575     -0.056649      0.114546
C      3.19606      7.29314     10.40319         0.618464     -0.397526      0.004147
C      4.25547      6.23373     10.35913        -0.118096      0.179960      0.012090
C      7.29314      7.29314      0.08601        -0.430293     -0.302438     -0.014129
C      6.23373      6.23373      0.13007         0.156404      0.148115     -0.061831
C      3.19606      3.19606      0.08601         0.301300      0.496664     -0.020848
C      4.25547      4.25547      0.13007        -0.402963     -0.243159     -0.029292
C      7.29314      3.19606     10.40319        -0.284249      0.605361     -0.009607
C      6.23373      4.25547     10.35913         0.016145     -0.100029      0.014067
O     10.43466      3.58206      8.50569        -0.025856      0.075942      0.290321
O     10.54374     17.39634      8.50569         0.066824     -0.119971      0.590121
O     10.54374      3.58206     12.47271         0.030228      0.103200     -0.406142
O     10.43466     17.39634     12.47271         0.095937     -0.061350     -0.416800
O      8.50569     10.43466      3.58206         0.751429     -0.073936      0.020447
O      8.50569     10.54374     17.39634         0.532078      0.058495     -0.106137
O     12.47271     10.54374      3.58206        -0.643386      0.110667      0.212905
O     12.47271     10.43466     17.39634        -0.291978      0.006145      0.033872
O      3.58206      8.50569     10.43466         0.034231      0.442143     -0.060465
O     17.39634      8.50569     10.54374        -0.053824      0.451304      0.056716
O      3.58206     12.47271     10.54374         0.103602     -0.593958      0.003459
O     17.39634     12.47271     10.43466        -0.184795     -0.749312     -0.053217
O      3.58206     10.43466      8.50569         0.213457     -0.057116      0.808955
O     17.39634     10.54374      8.50569        -0.075528      0.076865      0.496012
O      3.58206     10.54374     12.47271        -0.000142     -0.004288     -0.260034
O     17.39634     10.43466     12.47271         0.042344     -0.010541     -0.227850
O     10.43466      8.50569      3.58206        -0.108704      0.512283     -0.104876
O     10.54374      8.50569     17.39634         0.054807      0.521286     -0.092044
O     10.54374     12.47271      3.58206         0.100863     -0.636734      0.127566
O     10.43466     12.47271     17.39634        -0.070043     -0.688140     -0.273539
O      8.50569      3.58206     10.43466         0.394854      0.019749     -0.046768
O      8.50569     17.39634     10.54374         0.643976     -0.152975      0.045604
O     12.47271      3.58206     10.54374        -0.523526      0.120642      0.026010
O     12.47271     17.39634     10.43466        -0.629134     -0.125526      0.039279
O     11.90042     11.90042     19.56718        -0.281198     -0.304235      0.221017
O     19.56718     19.56718     19.56718         0.309212      0.324655      0.295589
O     19.56718     11.90042     11.90042         0.282618     -0.326975     -0.237563
O     11.90042     19.56718     11.90042        -0.315068      0.228913     -0.200974
O      9.45224      1.03696      9.45224        -0.072388      0.084071     -0.086245
O      1.03696      9.45224      9.45224         0.096318     -0.104314     -0.065453
O      1.03696      1.03696      1.03696         0.079955      0.053572      0.095926
O      9.45224      9.45224      1.03696        -0.059814     -0.126861      0.134614
Zr     10.48920      2.52580     10.48920         0.047982     -0.089826      0.134206
Zr     10.48920     18.45260     10.48920        -0.182989      0.245114     -0.363369
Zr     10.48920     10.48920      2.52580         0.116452      0.371072     -0.341428
Zr     10.48920     10.48920     18.45260        -0.068077     -0.267470      0.254393
Zr      2.52580     10.48920     10.48920        -0.235025      0.130538      0.242673
Zr     18.45260     10.48920     10.48920         0.195004     -0.142139     -0.006999
Pd      9.35836     14.28950      9.31460         0.004931      0.088771     -0.021965
Pd      8.59009     13.62906     13.04701         0.005150      0.010363      0.045811
Pd     12.02451     14.40744      8.74250         0.011880     -0.012972      0.041157
Pd     12.76412     12.87500     10.67737        -0.041295      0.047027     -0.030210
Pd     12.12325      7.19567     12.67804         0.002576      0.013515     -0.003923
Pd     11.16462     14.90154     11.45402        -0.001834      0.038668     -0.022127
Pd     10.04092     12.55859     11.09505        -0.035769      0.006569     -0.061235
Pd     13.47506     12.15844      7.98153         0.034953      0.037100     -0.002635
Pd     11.48782     11.54580      6.12181        -0.010816     -0.010692     -0.032792
Pd      7.94468      8.38225      7.52374        -0.031465     -0.033117     -0.021335
Pd      8.72640     11.75426      6.84802        -0.030905     -0.006585     -0.001937
Pd     10.31818      9.44587      8.14945        -0.005935      0.041304      0.045148
Pd      8.50096     14.46344      6.79742        -0.021812     -0.014974     -0.030904
Pd     12.39459      9.01589      6.57551        -0.007310      0.042673      0.017884
Pd      9.71733      9.61261      5.56891         0.038472      0.024955      0.010193
Pd      6.81043      9.44810     12.13233        -0.001635      0.013569      0.042122
Pd     12.18211      6.74678      7.95491        -0.002650      0.004339      0.055760
Pd      5.92052     10.49390      9.68558        -0.007175      0.002958      0.000870
Pd      7.53950      7.23653     13.40445         0.014432      0.004779     -0.016741
Ir     11.73928      9.78404     13.06387        -0.032300     -0.016474      0.028057
Ir     13.55475      9.05824     11.47063        -0.015463      0.025409      0.047376
Ir      9.43389      8.84937     14.00245        -0.033931      0.058354      0.076871
Ir     10.50308     11.04800     14.87078        -0.014901     -0.123329      0.026716
Ir      7.27284     12.01443     11.34287        -0.032167      0.020659      0.043738
Ir     14.65945     10.90439     10.13528        -0.036232      0.023997      0.060995
Ir     12.16657     10.57350      9.66975        -0.036330     -0.014651     -0.008847
Ir      8.74706     10.98726     12.98791        -0.005964      0.002428      0.051749
Ir     10.11161      9.92131     11.17177        -0.013387     -0.042488     -0.043971
Ir     13.74082     11.41480     12.48214         0.018873     -0.011391      0.030498
Ir     11.59791     12.36364     13.07820        -0.052867     -0.024845      0.051716
Ir      8.51012     11.10250      9.34651        -0.021319     -0.114938     -0.054054
Ir     11.58286      8.03258     10.15554         0.000225     -0.046621     -0.069331
Ir      7.21398     13.02054      8.65635        -0.035827      0.074315     -0.017296
Ir      9.54261      6.96174      9.23839         0.033100      0.006098      0.018754
Ir      8.04981      8.76264     10.05935         0.055124      0.040992     -0.036909
Ir     10.71341     12.13207      8.50537         0.066953     -0.047587      0.009356
Ir      9.50986      7.57391     11.75853         0.007089      0.032138     -0.057194
Ir     13.66847      8.79352      8.84426         0.030841     -0.029639     -0.000169
