152
# total energy = -1060.15920000 eVH     10.35389      5.87395      7.64558        -0.316621      0.100811      1.088498
H     10.62451     15.10445      7.64558         0.082324     -0.067910      0.894035
H     10.62451      5.87395     13.33282        -0.271241      0.073543     -0.782880
H     10.35389     15.10445     13.33282         0.093860     -0.302614     -0.822194
H      7.64558     10.35389      5.87395         0.893651     -0.202108      0.207471
H      7.64558     10.62451     15.10445         0.316296     -0.027433     -0.061825
H     13.33282     10.62451      5.87395        -0.886411      0.220479      0.222211
H     13.33282     10.35389     15.10445        -0.284588     -0.029231     -0.059387
H      5.87395      7.64558     10.35389         0.092315      0.422453     -0.010297
H     15.10445      7.64558     10.62451        -0.043848      0.437048     -0.029892
H      5.87395     13.33282     10.62451        -0.017884     -0.967008      0.078713
H     15.10445     13.33282     10.35389        -0.085046     -0.328620      0.002100
H      5.87395     10.35389      7.64558         0.317005      0.062513      0.370972
H     15.10445     10.62451      7.64558        -0.120128     -0.157670      0.668263
H      5.87395     10.62451     13.33282        -0.063415      0.452157     -0.601508
H     15.10445     10.35389     13.33282         0.227125     -0.635328     -0.878393
H     10.35389      7.64558      5.87395        -0.021753      0.500104      0.346063
H     10.62451      7.64558     15.10445         0.332112      0.788440     -0.005645
H     10.62451     13.33282      5.87395         0.151295     -0.568722      0.202404
H     10.35389     13.33282     15.10445         0.031295     -0.290579     -0.165940
H      7.64558      5.87395     10.35389         0.369332      0.114510      0.064366
H      7.64558     15.10445     10.62451         0.387877     -0.126995      0.179231
H     13.33282      5.87395     10.62451        -0.307641      0.137742     -0.013638
H     13.33282     15.10445     10.35389        -0.658964     -0.106396      0.136785
H     12.45634     12.45634     19.01126         0.258455      0.272803     -0.225191
H     19.01126     19.01126     19.01126        -0.248848     -0.266837     -0.243437
H     19.01126     12.45634     12.45634        -0.249708      0.271957      0.237570
H     12.45634     19.01126     12.45634         0.289281     -0.234674      0.236255
C     10.35284      5.61067      6.59456         0.399901     -0.417880     -1.358949
C     10.62556     15.36773      6.59456        -0.170333      0.610621     -0.661733
C     10.62556      5.61067     14.38384         0.365306     -0.275577      0.779732
C     10.35284     15.36773     14.38384        -0.207611      0.222189      1.028486
C      6.59456     10.35284      5.61067        -1.396220      0.032350     -0.226864
C      6.59456     10.62556     15.36773        -0.666401      0.065472      0.357129
C     14.38384     10.62556      5.61067         1.309370     -0.186150     -0.628916
C     14.38384     10.35284     15.36773         0.317479     -0.132236      0.354934
C      5.61067      6.59456     10.35284        -0.274205     -0.673298     -0.029999
C     15.36773      6.59456     10.62556         0.407972     -0.854955      0.029217
C      5.61067     14.38384     10.62556        -0.150654      1.195682     -0.215758
C     15.36773     14.38384     10.35284         0.503209      0.708472     -0.035866
C      5.61067     10.35284      6.59456        -0.372068     -0.102279     -0.775144
C     15.36773     10.62556      6.59456         0.400667      0.106968     -0.676746
C      5.61067     10.62556     14.38384        -0.407509     -0.163020      1.220342
C     15.36773     10.35284     14.38384         0.228486      0.226629      1.412677
C     10.35284      6.59456      5.61067        -0.070616     -0.746005     -0.545715
C     10.62556      6.59456     15.36773        -0.143284     -0.981146      0.378290
C     10.62556     14.38384      5.61067        -0.494828      0.385839     -0.738484
C     10.35284     14.38384     15.36773        -0.174718      0.736978      0.493357
C      6.59456      5.61067     10.35284        -0.563303     -0.336978      0.004191
C      6.59456     15.36773     10.62556        -0.366314      0.446169      0.066590
C     14.38384      5.61067     10.62556         0.433961     -0.309347      0.008514
C     14.38384     15.36773     10.35284         1.129521      0.485771     -0.078460
C     10.40319      3.19606      7.29314        -0.008753      0.793724     -0.338002
C     10.35913      4.25547      6.23373         0.023269     -0.379430      0.293393
C      0.08601      7.29314      7.29314        -0.019188     -0.380797     -0.504130
C      0.13007      6.23373      6.23373        -0.047856      0.877891      0.093375
C      0.08601      3.19606      3.19606        -0.007720      0.696262      0.260326
C      0.13007      4.25547      4.25547         0.045890     -0.266056     -0.546703
C     10.40319      7.29314      3.19606        -0.064660     -1.114108      0.625096
C     10.35913      6.23373      4.25547        -0.047848      0.348387     -0.203393
C      7.29314     10.40319      3.19606        -1.094274     -0.054630      0.202549
C      6.23373     10.35913      4.25547         0.379831      0.101954     -0.522993
C      7.29314      0.08601      7.29314        -0.483493      0.029401     -0.438002
C      6.23373      0.13007      6.23373         0.178836      0.122053      0.121249
C      3.19606      0.08601      3.19606         0.701601      0.023566      0.171309
C      4.25547      0.13007      4.25547        -0.173282     -0.050111     -0.365600
C      3.19606     10.40319      7.29314         0.374383     -0.026573     -0.951470
C      4.25547     10.35913      6.23373        -0.130340     -0.053926      0.115557
C      3.19606      7.29314     10.40319         0.614721     -0.397961      0.003219
C      4.25547      6.23373     10.35913        -0.115240      0.178378      0.011940
C      7.29314      7.29314      0.08601        -0.429020     -0.292479     -0.014374
C      6.23373      6.23373      0.13007         0.147134      0.154474     -0.061657
C      3.19606      3.19606      0.08601         0.292406      0.493095     -0.023973
C      4.25547      4.25547      0.13007        -0.403908     -0.239728     -0.030145
C      7.29314      3.19606     10.40319        -0.284095      0.594259     -0.008663
C      6.23373      4.25547     10.35913         0.015514     -0.092835      0.016295
O     10.43466      3.58206      8.50569        -0.027212      0.070957      0.302515
O     10.54374     17.39634      8.50569         0.062735     -0.122749      0.591888
O     10.54374      3.58206     12.47271         0.028470      0.102180     -0.396692
O     10.43466     17.39634     12.47271         0.093518     -0.063971     -0.436588
O      8.50569     10.43466      3.58206         0.734036     -0.072177      0.016762
O      8.50569     10.54374     17.39634         0.539570      0.063134     -0.104084
O     12.47271     10.54374      3.58206        -0.657888      0.113757      0.211573
O     12.47271     10.43466     17.39634        -0.281973      0.004245      0.037297
O      3.58206      8.50569     10.43466         0.032812      0.444696     -0.063349
O     17.39634      8.50569     10.54374        -0.055589      0.446003      0.057452
O      3.58206     12.47271     10.54374         0.104271     -0.587787      0.004603
O     17.39634     12.47271     10.43466        -0.183512     -0.740589     -0.047145
O      3.58206     10.43466      8.50569         0.207223     -0.060297      0.806993
O     17.39634     10.54374      8.50569        -0.069878      0.071132      0.486599
O      3.58206     10.54374     12.47271        -0.005354     -0.003877     -0.261157
O     17.39634     10.43466     12.47271         0.032670     -0.009331     -0.232808
O     10.43466      8.50569      3.58206        -0.108294      0.532782     -0.101088
O     10.54374      8.50569     17.39634         0.059303      0.511084     -0.083522
O     10.54374     12.47271      3.58206         0.102167     -0.637342      0.130308
O     10.43466     12.47271     17.39634        -0.065725     -0.699362     -0.280924
O      8.50569      3.58206     10.43466         0.395905      0.023399     -0.045725
O      8.50569     17.39634     10.54374         0.639299     -0.154300      0.047128
O     12.47271      3.58206     10.54374        -0.516485      0.121728      0.029581
O     12.47271     17.39634     10.43466        -0.625271     -0.124255      0.042038
O     11.90042     11.90042     19.56718        -0.278797     -0.302746      0.223241
O     19.56718     19.56718     19.56718         0.308907      0.322232      0.298977
O     19.56718     11.90042     11.90042         0.282879     -0.324596     -0.234461
O     11.90042     19.56718     11.90042        -0.315313      0.229767     -0.200708
O      9.45224      1.03696      9.45224        -0.076814      0.090211     -0.076666
O      1.03696      9.45224      9.45224         0.102391     -0.110324     -0.059132
O      1.03696      1.03696      1.03696         0.078391      0.055088      0.099185
O      9.45224      9.45224      1.03696        -0.059563     -0.125103      0.137639
Zr     10.48920      2.52580     10.48920         0.041642     -0.095608      0.122793
Zr     10.48920     18.45260     10.48920        -0.182235      0.247708     -0.359917
Zr     10.48920     10.48920      2.52580         0.112485      0.356982     -0.345318
Zr     10.48920     10.48920     18.45260        -0.081650     -0.261474      0.232249
Zr      2.52580     10.48920     10.48920        -0.242522      0.129439      0.246242
Zr     18.45260     10.48920     10.48920         0.195188     -0.137221     -0.023615
Pd      9.35994     14.30049      9.31103         0.017207      0.035907      0.002409
Pd      8.59126     13.64501     13.04317         0.010290      0.002001      0.012853
Pd     12.02383     14.40245      8.74538         0.011493      0.000703      0.011229
Pd     12.75467     12.87789     10.68648        -0.009522      0.004102      0.007319
Pd     12.11968      7.19170     12.67583        -0.000134     -0.014828      0.004621
Pd     11.15693     14.90384     11.45270        -0.012536      0.016087     -0.013079
Pd     10.03354     12.55432     11.08304        -0.008390      0.015586     -0.011843
Pd     13.47967     12.15407      7.98429         0.007572      0.004259      0.002244
Pd     11.47962     11.54322      6.10867         0.008960      0.003197     -0.015445
Pd      7.94152      8.37824      7.52270         0.002621     -0.011995      0.003416
Pd      8.71970     11.75728      6.84459        -0.009243     -0.005355     -0.020532
Pd     10.32118      9.45279      8.15104        -0.011697     -0.006710      0.009532
Pd      8.49648     14.46410      6.79082        -0.003379      0.006462     -0.015620
Pd     12.39646      9.01933      6.56978         0.000219      0.007206      0.013468
Pd      9.71754      9.61023      5.57357         0.000507      0.001848      0.001610
Pd      6.81874      9.45465     12.14082         0.007905      0.007151      0.008720
Pd     12.17875      6.74478      7.95400         0.008335      0.010115      0.011151
Pd      5.91336     10.48353      9.69388        -0.010314     -0.007050     -0.001807
Pd      7.55014      7.23956     13.40783        -0.000303     -0.000312     -0.009119
Ir     11.73328      9.77382     13.06792        -0.052188      0.025181      0.013812
Ir     13.54913      9.05674     11.47688         0.017626      0.016318      0.002698
Ir      9.42256      8.86483     14.01167         0.005257      0.040516     -0.011760
Ir     10.50618     11.01079     14.90131        -0.009239     -0.042361     -0.016327
Ir      7.26983     12.01502     11.33973         0.003310     -0.002609      0.026160
Ir     14.64673     10.91599     10.15651        -0.010696      0.006049      0.021273
Ir     12.16168     10.57302      9.67757         0.005411     -0.003568     -0.004875
Ir      8.75163     11.00535     12.99073         0.026192     -0.018149     -0.006107
Ir     10.10490      9.91862     11.17004        -0.005591     -0.027781      0.017591
Ir     13.73074     11.41852     12.49569        -0.028675     -0.000105      0.030194
Ir     11.57966     12.35095     13.09148        -0.050025     -0.046254      0.036542
Ir      8.49676     11.09826      9.33404         0.026258     -0.030720      0.000159
Ir     11.59368      8.02744     10.14515        -0.024621     -0.012842     -0.009691
Ir      7.21980     13.03202      8.65733        -0.043173      0.027372      0.001288
Ir      9.54815      6.96146      9.23830         0.001161      0.035821      0.023351
Ir      8.05185      8.76497     10.05777         0.031018     -0.029779     -0.003289
Ir     10.72028     12.12343      8.50057         0.003438     -0.002468      0.020348
Ir      9.51407      7.57234     11.75634        -0.005073      0.040820     -0.025468
Ir     13.66758      8.80097      8.84336         0.012386      0.001255      0.010071
