152
# total energy = -1004.51044523 eVH     10.35389      5.87395      7.64558        -0.129494      0.122089      0.655350
H     10.62451     15.10445      7.64558        -0.121182     -0.178320      0.536318
H     10.62451      5.87395     13.33282         0.397017      0.025084     -0.860889
H     10.35389     15.10445     13.33282         0.050116     -0.172739     -0.497853
H      7.64558     10.35389      5.87395         0.359832      0.044465      0.149481
H      7.64558     10.62451     15.10445         0.944691      0.633712      0.019592
H     13.33282     10.62451      5.87395        -0.460344      0.101494      0.164133
H     13.33282     10.35389     15.10445        -0.823657     -0.242788      0.033101
H      5.87395      7.64558     10.35389         0.212631      1.758557      0.183686
H     15.10445      7.64558     10.62451        -0.081189      0.509603      0.259910
H      5.87395     13.33282     10.62451         0.196865     -0.558332     -0.011303
H     15.10445     13.33282     10.35389         0.192854     -1.309923     -0.479072
H      5.87395     10.35389      7.64558         0.141459      0.041825      0.494215
H     15.10445     10.62451      7.64558        -0.215045      0.856570      1.355626
H      5.87395     10.62451     13.33282        -0.013105      0.530192     -1.211031
H     15.10445     10.35389     13.33282         0.063737     -0.204678     -0.796638
H     10.35389      7.64558      5.87395         0.234040      1.289807      0.116925
H     10.62451      7.64558     15.10445         0.519483      0.768261     -0.097471
H     10.62451     13.33282      5.87395        -0.428342     -0.696730      0.313992
H     10.35389     13.33282     15.10445        -0.244532     -0.498732     -0.328194
H      7.64558      5.87395     10.35389         1.171793     -0.232102     -0.075269
H      7.64558     15.10445     10.62451         0.838671     -0.189499     -0.012006
H     13.33282      5.87395     10.62451        -0.601011      0.123506      0.654178
H     13.33282     15.10445     10.35389        -0.539641     -0.020697     -0.239525
H     12.45634     12.45634     19.01126         0.267279      0.255324     -0.230515
H     19.01126     19.01126     19.01126        -0.269374     -0.262730     -0.222321
H     19.01126     12.45634     12.45634        -0.277995      0.256555      0.226370
H     12.45634     19.01126     12.45634         0.241976     -0.280118      0.243274
C     10.35284      5.61067      6.59456        -0.159259     -0.802228     -0.402616
C     10.62556     15.36773      6.59456         0.063896      0.239793     -0.306286
C     10.62556      5.61067     14.38384        -0.035714     -0.431836      0.574263
C     10.35284     15.36773     14.38384         0.007771      0.250930      0.489406
C      6.59456     10.35284      5.61067        -0.461595      0.042194     -0.310180
C      6.59456     10.62556     15.36773        -0.926393      0.173622      0.700379
C     14.38384     10.62556      5.61067         0.637522      0.006019     -0.933105
C     14.38384     10.35284     15.36773         0.932497     -0.123345      0.361937
C      5.61067      6.59456     10.35284        -0.886319     -0.990225     -0.459952
C     15.36773      6.59456     10.62556         0.699753     -0.031431     -0.239099
C      5.61067     14.38384     10.62556        -0.252611      0.600990      0.013668
C     15.36773     14.38384     10.35284         0.313283      1.292012      0.081242
C      5.61067     10.35284      6.59456        -0.272660      0.014331     -0.696130
C     15.36773     10.62556      6.59456         0.523614     -0.311768     -0.879712
C      5.61067     10.62556     14.38384        -0.510379     -0.011295      0.807250
C     15.36773     10.35284     14.38384         0.498443     -0.080526      1.027800
C     10.35284      6.59456      5.61067        -0.093430     -0.899108     -0.370972
C     10.62556      6.59456     15.36773         0.120396     -0.771751      0.492242
C     10.62556     14.38384      5.61067         0.127971      1.101670     -0.314732
C     10.35284     14.38384     15.36773        -0.025525      1.042609      0.497863
C      6.59456      5.61067     10.35284        -0.550066     -1.241914      0.091194
C      6.59456     15.36773     10.62556        -0.997634      0.192565      0.099748
C     14.38384      5.61067     10.62556        -0.131651     -0.488473     -0.283528
C     14.38384     15.36773     10.35284         0.269146      0.585809     -0.068190
C     10.40319      3.19606      7.29314         0.010294      0.865678     -0.535193
C     10.35913      4.25547      6.23373         0.042766     -0.535003      0.135506
C      0.08601      7.29314      7.29314        -0.027528     -0.983622     -0.219212
C      0.13007      6.23373      6.23373        -0.089856      0.325085      0.318406
C      0.08601      3.19606      3.19606         0.053379      1.329761      0.146302
C      0.13007      4.25547      4.25547        -0.029101     -0.342707     -0.385286
C     10.40319      7.29314      3.19606        -0.003704     -0.490877      0.262365
C     10.35913      6.23373      4.25547        -0.017688      0.113883     -0.726417
C      7.29314     10.40319      3.19606        -0.303697      0.020952      0.505606
C      6.23373     10.35913      4.25547         0.211802      0.088579     -0.110542
C      7.29314      0.08601      7.29314        -1.023305     -0.099652     -0.381157
C      6.23373      0.13007      6.23373         0.685618     -0.197992      0.456454
C      3.19606      0.08601      3.19606         1.226650     -0.020218      0.412944
C      4.25547      0.13007      4.25547        -0.675612     -0.171713     -0.258949
C      3.19606     10.40319      7.29314         0.565725      0.024325     -0.352718
C      4.25547     10.35913      6.23373        -0.236695      0.104617      0.222736
C      3.19606      7.29314     10.40319         0.336465     -0.862554      0.035627
C      4.25547      6.23373     10.35913        -1.102297      0.138948      0.187083
C      7.29314      7.29314      0.08601        -0.470076     -0.501227     -0.015586
C      6.23373      6.23373      0.13007         0.484726      0.317492      0.002146
C      3.19606      3.19606      0.08601         0.529979      0.400186     -0.023605
C      4.25547      4.25547      0.13007        -0.022383     -0.727331     -0.095002
C      7.29314      3.19606     10.40319        -0.396436      0.505214      0.056199
C      6.23373      4.25547     10.35913         0.571010     -0.706958      0.219787
O     10.43466      3.58206      8.50569         0.001170      0.082622      0.500499
O     10.54374     17.39634      8.50569         0.055556     -0.022546      0.267626
O     10.54374      3.58206     12.47271        -0.003505     -0.088740     -0.126510
O     10.43466     17.39634     12.47271        -0.037844     -0.131676     -0.475221
O      8.50569     10.43466      3.58206         0.388997     -0.026653      0.053240
O      8.50569     10.54374     17.39634         0.844020     -0.054535     -0.157529
O     12.47271     10.54374      3.58206        -0.892890      0.113175      0.068948
O     12.47271     10.43466     17.39634        -0.594423      0.023691     -0.150229
O      3.58206      8.50569     10.43466         0.190817      0.876199     -0.017765
O     17.39634      8.50569     10.54374        -0.152241      0.673464      0.040553
O      3.58206     12.47271     10.54374         0.106336     -0.543314      0.052930
O     17.39634     12.47271     10.43466        -0.165728     -0.601872     -0.037676
O      3.58206     10.43466      8.50569         0.077768     -0.058795      0.454270
O     17.39634     10.54374      8.50569         0.026612      0.096108      0.397740
O      3.58206     10.54374     12.47271        -0.028589      0.025955     -0.326927
O     17.39634     10.43466     12.47271        -0.194907     -0.034246     -0.646098
O     10.43466      8.50569      3.58206        -0.032149      0.584700      0.163025
O     10.54374      8.50569     17.39634        -0.091303      0.797498     -0.224034
O     10.54374     12.47271      3.58206         0.096708     -0.952982      0.137858
O     10.43466     12.47271     17.39634         0.068722     -0.724041     -0.188296
O      8.50569      3.58206     10.43466         0.569835      0.142137     -0.047455
O      8.50569     17.39634     10.54374         0.549214     -0.150303      0.004117
O     12.47271      3.58206     10.54374        -0.686707      0.153196      0.019700
O     12.47271     17.39634     10.43466        -0.425501     -0.053894     -0.033627
O     11.90042     11.90042     19.56718        -0.317087     -0.291291      0.242078
O     19.56718     19.56718     19.56718         0.304554      0.307748      0.217776
O     19.56718     11.90042     11.90042         0.334424     -0.273652     -0.233939
O     11.90042     19.56718     11.90042        -0.261345      0.345364     -0.261627
O      9.45224      1.03696      9.45224        -0.023192      0.082052     -0.128004
O      1.03696      9.45224      9.45224         0.068175     -0.039684     -0.129742
O      1.03696      1.03696      1.03696         0.079927      0.107235      0.084817
O      9.45224      9.45224      1.03696        -0.059508     -0.050325      0.067369
Zr     10.48920      2.52580     10.48920        -0.059757     -0.203723      0.032344
Zr     10.48920     18.45260     10.48920        -0.003238      0.078735      0.161808
Zr     10.48920     10.48920      2.52580        -0.293585     -0.406617     -0.338598
Zr     10.48920     10.48920     18.45260         0.089554      0.027758      0.412143
Zr      2.52580     10.48920     10.48920        -0.209432      0.095807     -0.006040
Zr     18.45260     10.48920     10.48920         0.174026     -0.006869      0.005977
Pd     13.04812      8.51360      9.82401        -0.090408      0.154371     -0.066216
Pd      6.22129      9.61933     10.23575         0.032656      0.068881      0.009371
Pd      6.98604     11.59367     11.77941        -0.118210      0.016318     -0.068837
Pd     12.36794     13.27556      7.30311        -0.066438     -0.072193      0.001404
Pd     12.13886      7.82734      7.10631        -0.008320     -0.022799      0.007111
Pd      8.46846      7.28637      6.89138         0.026795     -0.020240      0.003807
Pd     11.36338     11.44305      5.58538        -0.073747     -0.001643     -0.025370
Pd     14.56378      8.79802      7.61524        -0.088948     -0.068580     -0.064810
Pd      9.90732     11.81889      7.97228         0.044927     -0.014292     -0.012622
Pd      7.04638      7.13746     12.02282        -0.060859     -0.085042      0.023823
Pd      6.33379      7.50412      8.41143         0.064317     -0.025358     -0.028754
Pd      7.22273      9.12849     13.67485        -0.041689      0.014490     -0.041149
Pd     11.41205      6.34863      9.22818         0.085864      0.005373     -0.060302
Pd     10.00224      9.50646      6.60895        -0.016901     -0.022997     -0.036313
Pd      9.03815     14.00406      9.36680         0.056338      0.009380     -0.035438
Pd     10.85942      7.45617     11.45714        -0.012692      0.043157      0.118329
Pd     10.46743      9.09098      9.28355         0.206417      0.105250      0.028660
Pd      9.49163     11.53963     10.57281         0.038973      0.001799      0.046147
Pd      8.85077      7.11043      9.59034        -0.036864     -0.018226     -0.023000
Pd      9.18945      7.43453     13.48699         0.016301     -0.054243     -0.023628
Pd      8.64193      9.21763     11.34811        -0.033265     -0.034711     -0.030619
Pd     12.26035     10.44841      7.88710        -0.007332     -0.049528      0.040022
Pd      7.29927     11.95260      9.14106        -0.071854     -0.011275     -0.003243
Pd      8.09374      9.57905      8.37532        -0.136739      0.030190      0.079487
Pd     14.00225      6.38272      8.51987         0.081353     -0.061681     -0.074499
Pd     13.15197      8.48379     12.45651        -0.006707      0.036421     -0.094513
Pd      9.00739     11.43066     13.36357         0.041889      0.054654      0.078890
Pd     13.90212     12.04528      9.05433         0.020836     -0.009895      0.027050
Pd     13.17039     11.16203     13.17488         0.044563     -0.054967      0.016394
Pd     14.67384     10.37002     11.01099        -0.046057     -0.023794     -0.070481
Pd     12.03085     10.79128     10.72185         0.011578     -0.133159     -0.111971
Pd     11.52644     13.28382      9.76282         0.004425     -0.051059      0.208309
Pd     13.64617     13.12259     11.55850        -0.065529      0.014290      0.066996
Pd     11.15486     12.78231     12.39538        -0.082251      0.068164     -0.008612
Pd     11.23229     11.59074     14.87527        -0.123925     -0.011273      0.062996
Pd     10.89306      9.71796     12.86440         0.024337     -0.106991     -0.018503
Pd      9.54144      9.53740     15.21178         0.020394      0.005411      0.014840
Pd      8.70362     13.73211     12.01100         0.034668      0.004944      0.035687
