152
# total energy = -1060.04547718 eVH     10.35389      5.87395      7.64558        -0.270941      0.010758      1.144595
H     10.62451     15.10445      7.64558         0.066072     -0.087632      0.926840
H     10.62451      5.87395     13.33282        -0.252317      0.082851     -0.792502
H     10.35389     15.10445     13.33282         0.104928     -0.299597     -0.893278
H      7.64558     10.35389      5.87395         0.937634     -0.125440      0.180336
H      7.64558     10.62451     15.10445         0.330282     -0.039860     -0.077104
H     13.33282     10.62451      5.87395        -0.873491      0.215684      0.204604
H     13.33282     10.35389     15.10445        -0.278620     -0.011963     -0.069287
H      5.87395      7.64558     10.35389         0.088547      0.419680     -0.008242
H     15.10445      7.64558     10.62451         0.006187      0.499687     -0.031740
H      5.87395     13.33282     10.62451        -0.017984     -0.956099      0.074943
H     15.10445     13.33282     10.35389        -0.081887     -0.320968      0.003663
H      5.87395     10.35389      7.64558         0.273398      0.118465      0.411529
H     15.10445     10.62451      7.64558        -0.123267     -0.175565      0.658253
H      5.87395     10.62451     13.33282        -0.087627      0.456960     -0.625002
H     15.10445     10.35389     13.33282         0.255307     -0.637740     -0.821321
H     10.35389      7.64558      5.87395        -0.046954      0.476877      0.328961
H     10.62451      7.64558     15.10445         0.222294      0.745966     -0.042348
H     10.62451     13.33282      5.87395         0.128296     -0.572610      0.206057
H     10.35389     13.33282     15.10445         0.037555     -0.284825     -0.139880
H      7.64558      5.87395     10.35389         0.339215      0.094897      0.023349
H      7.64558     15.10445     10.62451         0.375771     -0.117064      0.156958
H     13.33282      5.87395     10.62451        -0.315960      0.129051     -0.034665
H     13.33282     15.10445     10.35389        -0.653119     -0.131141      0.146375
H     12.45634     12.45634     19.01126         0.255226      0.270932     -0.229297
H     19.01126     19.01126     19.01126        -0.245800     -0.268280     -0.245920
H     19.01126     12.45634     12.45634        -0.251197      0.269555      0.234547
H     12.45634     19.01126     12.45634         0.291197     -0.236183      0.233705
C     10.35284      5.61067      6.59456         0.393635     -0.421007     -1.452569
C     10.62556     15.36773      6.59456        -0.155186      0.583981     -0.636571
C     10.62556      5.61067     14.38384         0.385207     -0.339358      0.846230
C     10.35284     15.36773     14.38384        -0.234241      0.222847      1.105628
C      6.59456     10.35284      5.61067        -1.378976      0.020337     -0.238297
C      6.59456     10.62556     15.36773        -0.641885      0.059553      0.379852
C     14.38384     10.62556      5.61067         1.320379     -0.177586     -0.630781
C     14.38384     10.35284     15.36773         0.369247     -0.123339      0.357839
C      5.61067      6.59456     10.35284        -0.290385     -0.644314     -0.018370
C     15.36773      6.59456     10.62556         0.423155     -0.979121      0.034352
C      5.61067     14.38384     10.62556        -0.134482      1.163399     -0.178082
C     15.36773     14.38384     10.35284         0.457244      0.647244     -0.025310
C      5.61067     10.35284      6.59456        -0.369351     -0.098303     -0.708425
C     15.36773     10.62556      6.59456         0.418007      0.122509     -0.738361
C      5.61067     10.62556     14.38384        -0.378877     -0.171713      1.225083
C     15.36773     10.35284     14.38384         0.277580      0.190854      1.487105
C     10.35284      6.59456      5.61067        -0.050374     -0.707101     -0.616151
C     10.62556      6.59456     15.36773        -0.088634     -0.832743      0.347402
C     10.62556     14.38384      5.61067        -0.465563      0.410200     -0.706696
C     10.35284     14.38384     15.36773        -0.151780      0.595722      0.416480
C      6.59456      5.61067     10.35284        -0.512333     -0.341073      0.029142
C      6.59456     15.36773     10.62556        -0.386040      0.455370      0.053060
C     14.38384      5.61067     10.62556         0.446213     -0.378800      0.001812
C     14.38384     15.36773     10.35284         1.119172      0.496722     -0.071873
C     10.40319      3.19606      7.29314         0.000896      0.662008     -0.336501
C     10.35913      4.25547      6.23373         0.008595     -0.441411      0.286980
C      0.08601      7.29314      7.29314        -0.012686     -0.360272     -0.501886
C      0.13007      6.23373      6.23373        -0.073314      0.837504      0.058537
C      0.08601      3.19606      3.19606        -0.001695      0.678888      0.269033
C      0.13007      4.25547      4.25547         0.027597     -0.268720     -0.541354
C     10.40319      7.29314      3.19606        -0.067112     -1.168641      0.567996
C     10.35913      6.23373      4.25547        -0.036961      0.369347     -0.201783
C      7.29314     10.40319      3.19606        -1.089303     -0.058382      0.187551
C      6.23373     10.35913      4.25547         0.366356      0.081843     -0.543476
C      7.29314      0.08601      7.29314        -0.418220      0.033195     -0.545108
C      6.23373      0.13007      6.23373         0.177549      0.130732      0.128888
C      3.19606      0.08601      3.19606         0.705710      0.024986      0.160445
C      4.25547      0.13007      4.25547        -0.170902     -0.054068     -0.367950
C      3.19606     10.40319      7.29314         0.387080     -0.025468     -0.874830
C      4.25547     10.35913      6.23373        -0.158795     -0.082312      0.095340
C      3.19606      7.29314     10.40319         0.603310     -0.392336      0.002144
C      4.25547      6.23373     10.35913        -0.112584      0.185353     -0.001048
C      7.29314      7.29314      0.08601        -0.406316     -0.321405     -0.015135
C      6.23373      6.23373      0.13007         0.189136      0.190355     -0.060650
C      3.19606      3.19606      0.08601         0.288469      0.478926     -0.023790
C      4.25547      4.25547      0.13007        -0.397171     -0.228805     -0.031372
C      7.29314      3.19606     10.40319        -0.279528      0.589424     -0.012334
C      6.23373      4.25547     10.35913         0.005413     -0.116170      0.021173
O     10.43466      3.58206      8.50569        -0.028860      0.096899      0.322467
O     10.54374     17.39634      8.50569         0.063694     -0.132107      0.592221
O     10.54374      3.58206     12.47271         0.027391      0.107134     -0.391731
O     10.43466     17.39634     12.47271         0.088617     -0.042503     -0.373463
O      8.50569     10.43466      3.58206         0.709379     -0.058927      0.007639
O      8.50569     10.54374     17.39634         0.463062      0.057230     -0.073139
O     12.47271     10.54374      3.58206        -0.652476      0.116478      0.205371
O     12.47271     10.43466     17.39634        -0.283092     -0.005258      0.016364
O      3.58206      8.50569     10.43466         0.042414      0.462504     -0.068364
O     17.39634      8.50569     10.54374        -0.061681      0.457894      0.055568
O      3.58206     12.47271     10.54374         0.115678     -0.584344      0.001409
O     17.39634     12.47271     10.43466        -0.169860     -0.738967     -0.059313
O      3.58206     10.43466      8.50569         0.214602     -0.062452      0.778488
O     17.39634     10.54374      8.50569        -0.109772      0.075514      0.580392
O      3.58206     10.54374     12.47271        -0.002240     -0.001084     -0.266644
O     17.39634     10.43466     12.47271         0.041326     -0.013547     -0.216011
O     10.43466      8.50569      3.58206        -0.100759      0.570931     -0.123932
O     10.54374      8.50569     17.39634         0.067257      0.503043     -0.094351
O     10.54374     12.47271      3.58206         0.105807     -0.623610      0.133039
O     10.43466     12.47271     17.39634        -0.059485     -0.642734     -0.248726
O      8.50569      3.58206     10.43466         0.398293      0.028101     -0.033257
O      8.50569     17.39634     10.54374         0.627203     -0.153976      0.049263
O     12.47271      3.58206     10.54374        -0.505608      0.126488      0.036796
O     12.47271     17.39634     10.43466        -0.622059     -0.135777      0.038592
O     11.90042     11.90042     19.56718        -0.273281     -0.307903      0.235444
O     19.56718     19.56718     19.56718         0.302277      0.318156      0.300084
O     19.56718     11.90042     11.90042         0.285106     -0.325110     -0.230776
O     11.90042     19.56718     11.90042        -0.316969      0.229524     -0.201596
O      9.45224      1.03696      9.45224        -0.085638      0.084788     -0.065703
O      1.03696      9.45224      9.45224         0.102504     -0.118033     -0.044511
O      1.03696      1.03696      1.03696         0.085127      0.057201      0.097693
O      9.45224      9.45224      1.03696        -0.062085     -0.133257      0.130380
Zr     10.48920      2.52580     10.48920         0.030041     -0.089377      0.069569
Zr     10.48920     18.45260     10.48920        -0.168927      0.262709     -0.347580
Zr     10.48920     10.48920      2.52580         0.121942      0.358285     -0.353763
Zr     10.48920     10.48920     18.45260        -0.083158     -0.198895      0.173586
Zr      2.52580     10.48920     10.48920        -0.257170      0.124623      0.224015
Zr     18.45260     10.48920     10.48920         0.231072     -0.110217      0.000194
Pd      9.39335     14.24095      9.36985         0.004265      0.047580     -0.038348
Pd      8.62815     13.72165     12.96650        -0.007425     -0.013915      0.012219
Pd     12.02903     14.41211      8.74526         0.015155     -0.003887     -0.005015
Pd     12.77599     12.80670     10.61854        -0.019174      0.025592      0.035416
Pd     12.15005      7.10347     12.60199        -0.008564      0.015162      0.025308
Pd     11.22369     14.81859     11.51355        -0.031965      0.034647     -0.027205
Pd     10.09998     12.47632     11.12661        -0.043674      0.043988     -0.052106
Pd     13.48221     12.13364      7.97679         0.002043     -0.002041      0.011690
Pd     11.48470     11.55637      6.11038         0.001340      0.003153     -0.004848
Pd      7.85120      8.58387      7.54160         0.012847     -0.041884     -0.002138
Pd      8.74362     11.72501      6.88752        -0.010862      0.010951     -0.015286
Pd     10.31910      9.45874      8.12815        -0.008226      0.008719      0.019950
Pd      8.51012     14.42688      6.85437        -0.008064      0.015208     -0.031572
Pd     12.38340      9.02934      6.57192        -0.017739      0.006080      0.012247
Pd      9.75047      9.61205      5.54301        -0.005890     -0.000657      0.011327
Pd      6.88820      9.46157     12.19783        -0.012600      0.010138     -0.005398
Pd     12.20580      6.68248      7.85706         0.004153      0.016286      0.025896
Pd      5.95866     10.47216      9.74009        -0.016016     -0.024040     -0.009596
Pd      7.58205      7.11379     13.24320        -0.001729      0.039970      0.034660
Ir     11.81786      9.69412     13.05882        -0.036862      0.007395      0.003059
Ir     13.58194      8.98586     11.43455        -0.013271      0.011542      0.014602
Ir      9.42636      8.83065     13.83829        -0.006563      0.010268      0.069297
Ir     10.57308     10.90980     14.87095        -0.014997     -0.016138      0.047469
Ir      7.30383     12.03943     11.36755        -0.017751     -0.017128     -0.004372
Ir     14.69662     10.82521     10.07806        -0.018245      0.024515      0.044150
Ir     12.19933     10.47067      9.65366        -0.004280      0.023824      0.012290
Ir      8.78660     11.06247     13.03172         0.018363      0.001315     -0.027768
Ir     10.14794      9.84152     11.23598        -0.013118      0.027288     -0.037645
Ir     13.78368     11.35768     12.39746        -0.049529      0.008562      0.044933
Ir     11.67615     12.28883     13.11512        -0.081773     -0.005982     -0.003730
Ir      8.54208     11.06387      9.38961        -0.019091     -0.002291     -0.021331
Ir     11.59073      7.96777     10.05674         0.015286      0.014132      0.019766
Ir      7.23819     12.98262      8.69314         0.017354      0.027003      0.011933
Ir      9.50683      7.00737      9.07978         0.014331     -0.009593      0.028919
Ir      8.07209      8.74112     10.10509        -0.016193      0.015886     -0.001512
Ir     10.76469     12.08556      8.53827        -0.013448      0.013077     -0.015978
Ir      9.57325      7.41024     11.63812        -0.004273      0.048415      0.042472
Ir     13.69639      8.68182      8.79729        -0.003485      0.042186      0.013029
