152
# total energy = -1060.94974329 eVH     10.35389      5.87395      7.64558        -0.501042      0.152659      1.200128
H     10.62451     15.10445      7.64558         0.078769     -0.104573      0.801605
H     10.62451      5.87395     13.33282        -0.250842      0.058469     -0.601649
H     10.35389     15.10445     13.33282         0.011514     -0.295221     -0.491139
H      7.64558     10.35389      5.87395         0.714976     -0.018092      0.209897
H      7.64558     10.62451     15.10445         0.193290      0.007205     -0.059539
H     13.33282     10.62451      5.87395        -0.605862     -0.069441      0.158088
H     13.33282     10.35389     15.10445        -0.307527     -0.061495     -0.083490
H      5.87395      7.64558     10.35389         0.127229      0.371014     -0.025906
H     15.10445      7.64558     10.62451        -0.121868      0.830433      0.392856
H      5.87395     13.33282     10.62451         0.133839     -0.554970     -0.010762
H     15.10445     13.33282     10.35389        -0.251195     -0.482315      0.108186
H      5.87395     10.35389      7.64558         0.254898      0.127069      0.353552
H     15.10445     10.62451      7.64558        -0.181039     -0.072738      0.320377
H      5.87395     10.62451     13.33282         0.015453      0.194661     -0.764512
H     15.10445     10.35389     13.33282         0.035025     -0.233767     -0.631305
H     10.35389      7.64558      5.87395        -0.098449      0.447049      0.269226
H     10.62451      7.64558     15.10445         0.375388      0.725732     -0.113364
H     10.62451     13.33282      5.87395         0.341753     -0.620792      0.122738
H     10.35389     13.33282     15.10445         0.138496     -0.547195     -0.112687
H      7.64558      5.87395     10.35389         0.445372      0.153583     -0.001376
H      7.64558     15.10445     10.62451         0.426533     -0.161727      0.269440
H     13.33282      5.87395     10.62451        -0.320589      0.108085      0.027369
H     13.33282     15.10445     10.35389        -0.551841     -0.241731      0.209114
H     12.45634     12.45634     19.01126         0.244875      0.267136     -0.237451
H     19.01126     19.01126     19.01126        -0.253972     -0.264133     -0.231255
H     19.01126     12.45634     12.45634        -0.231913      0.261420      0.250024
H     12.45634     19.01126     12.45634         0.294835     -0.212040      0.240469
C     10.35284      5.61067      6.59456         0.452224     -0.406446     -1.185492
C     10.62556     15.36773      6.59456        -0.156582      0.835318     -0.670569
C     10.62556      5.61067     14.38384         0.324226     -0.262063      0.582033
C     10.35284     15.36773     14.38384        -0.136029      0.315393      0.619769
C      6.59456     10.35284      5.61067        -0.671578     -0.132577     -0.189233
C      6.59456     10.62556     15.36773        -0.548322      0.073763      0.364641
C     14.38384     10.62556      5.61067         1.019086      0.034959     -0.457515
C     14.38384     10.35284     15.36773         0.284529     -0.075146      0.318661
C      5.61067      6.59456     10.35284        -0.361297     -0.512868      0.018821
C     15.36773      6.59456     10.62556         0.201830     -0.845569     -0.320735
C      5.61067     14.38384     10.62556        -0.221916      0.624631     -0.257229
C     15.36773     14.38384     10.35284         0.361005      0.884088     -0.126358
C      5.61067     10.35284      6.59456        -0.226523     -0.138595     -0.353124
C     15.36773     10.62556      6.59456         0.193245      0.062848     -0.293924
C      5.61067     10.62556     14.38384        -0.428528     -0.053315      1.338677
C     15.36773     10.35284     14.38384         0.265319     -0.033837      0.940952
C     10.35284      6.59456      5.61067        -0.037457     -0.308238     -0.480002
C     10.62556      6.59456     15.36773        -0.045196     -0.877723      0.307893
C     10.62556     14.38384      5.61067        -0.312346     -0.087735     -0.772487
C     10.35284     14.38384     15.36773        -0.253001      0.797599      0.279856
C      6.59456      5.61067     10.35284        -0.477552     -0.319114      0.120750
C      6.59456     15.36773     10.62556        -0.436634      0.522425      0.046031
C     14.38384      5.61067     10.62556         0.270359     -0.388544      0.112905
C     14.38384     15.36773     10.35284         0.889865      0.313282     -0.053951
C     10.40319      3.19606      7.29314         0.009418      0.682644     -0.374625
C     10.35913      4.25547      6.23373         0.007144     -0.515626      0.328722
C      0.08601      7.29314      7.29314        -0.016362     -0.714121     -0.572196
C      0.13007      6.23373      6.23373        -0.111446      0.859771      0.154458
C      0.08601      3.19606      3.19606        -0.025958      0.329421      0.357276
C      0.13007      4.25547      4.25547         0.057338     -0.170140     -0.662965
C     10.40319      7.29314      3.19606        -0.033453     -1.140197      1.018488
C     10.35913      6.23373      4.25547         0.019017      0.350425     -0.202229
C      7.29314     10.40319      3.19606        -0.827790     -0.044523      0.366126
C      6.23373     10.35913      4.25547         0.221629      0.047529     -0.459665
C      7.29314      0.08601      7.29314        -0.899301      0.009590     -0.407809
C      6.23373      0.13007      6.23373         0.116072      0.010813      0.087675
C      3.19606      0.08601      3.19606         0.384903     -0.002794      0.346532
C      4.25547      0.13007      4.25547        -0.255529     -0.046733     -0.180923
C      3.19606     10.40319      7.29314         0.490664     -0.044009     -1.143876
C      4.25547     10.35913      6.23373        -0.248630     -0.036604      0.127485
C      3.19606      7.29314     10.40319         0.781729     -0.477958      0.016381
C      4.25547      6.23373     10.35913        -0.108993      0.168178     -0.003201
C      7.29314      7.29314      0.08601        -0.404237     -0.282641     -0.013543
C      6.23373      6.23373      0.13007         0.362353      0.089423     -0.163788
C      3.19606      3.19606      0.08601         0.338043      0.679647     -0.013089
C      4.25547      4.25547      0.13007        -0.351336     -0.278157      0.028814
C      7.29314      3.19606     10.40319        -0.211677      0.620866      0.017709
C      6.23373      4.25547     10.35913         0.069822     -0.229665     -0.008921
O     10.43466      3.58206      8.50569        -0.023989      0.088948      0.338740
O     10.54374     17.39634      8.50569         0.073755     -0.021928      0.422316
O     10.54374      3.58206     12.47271         0.049374      0.200924     -0.552384
O     10.43466     17.39634     12.47271         0.041458      0.012358     -0.528393
O      8.50569     10.43466      3.58206         0.637303     -0.072803      0.088757
O      8.50569     10.54374     17.39634         0.873394      0.056302     -0.134977
O     12.47271     10.54374      3.58206        -0.352685      0.053329      0.035028
O     12.47271     10.43466     17.39634        -0.341794     -0.014102      0.081482
O      3.58206      8.50569     10.43466        -0.002824      0.420528     -0.081521
O     17.39634      8.50569     10.54374        -0.128247      0.417144      0.026009
O      3.58206     12.47271     10.54374         0.131204     -0.670574     -0.006732
O     17.39634     12.47271     10.43466        -0.265057     -0.701833     -0.007897
O      3.58206     10.43466      8.50569         0.131964     -0.046923      0.865127
O     17.39634     10.54374      8.50569         0.014095      0.044402      0.318674
O      3.58206     10.54374     12.47271         0.057557      0.016077     -0.420687
O     17.39634     10.43466     12.47271        -0.053882      0.018296     -0.380611
O     10.43466      8.50569      3.58206        -0.067101      0.545277     -0.142996
O     10.54374      8.50569     17.39634         0.031611      0.755116     -0.130335
O     10.54374     12.47271      3.58206         0.055432     -0.356675      0.086988
O     10.43466     12.47271     17.39634        -0.064551     -0.725744     -0.238856
O      8.50569      3.58206     10.43466         0.319426      0.044369     -0.060586
O      8.50569     17.39634     10.54374         0.533240     -0.140708      0.021745
O     12.47271      3.58206     10.54374        -0.433206      0.107433      0.015075
O     12.47271     17.39634     10.43466        -0.608965     -0.084409      0.046922
O     11.90042     11.90042     19.56718        -0.251298     -0.282156      0.215757
O     19.56718     19.56718     19.56718         0.296851      0.298311      0.253949
O     19.56718     11.90042     11.90042         0.242753     -0.289568     -0.307907
O     11.90042     19.56718     11.90042        -0.288301      0.163968     -0.253217
O      9.45224      1.03696      9.45224        -0.108012      0.118639     -0.096592
O      1.03696      9.45224      9.45224         0.137067     -0.143476     -0.142250
O      1.03696      1.03696      1.03696         0.158117      0.190872     -0.036440
O      9.45224      9.45224      1.03696        -0.183237     -0.211248      0.020824
Zr     10.48920      2.52580     10.48920         0.030719     -0.245289      0.233834
Zr     10.48920     18.45260     10.48920        -0.247519      0.285724     -0.292147
Zr     10.48920     10.48920      2.52580         0.149573      0.509971     -0.181654
Zr     10.48920     10.48920     18.45260         0.004241     -0.115941      0.468162
Zr      2.52580     10.48920     10.48920        -0.506667      0.099536      0.401256
Zr     18.45260     10.48920     10.48920         0.239508     -0.179777      0.072545
Pd      9.13870     14.48308      9.11186        -0.108834     -0.052482      0.147986
Pd      8.25669     13.29581     13.68362         0.091421     -0.123664     -0.066896
Pd     11.86480     14.49371      8.89778        -0.036666     -0.359365     -0.045126
Pd     12.22380     12.78955     10.85654         0.180781      0.093748      0.177633
Pd     11.94877      7.12787     12.30934        -0.063063     -0.009895     -0.158014
Pd     10.97615     15.25012     11.27160        -0.080416      0.045778      0.071243
Pd      9.50857     13.06597     11.32967         0.124916     -0.075204     -0.024304
Pd     13.69131     12.61940      8.38227         0.344950      0.016618     -0.012404
Pd     11.73694     11.69729      6.80062        -0.006665     -0.164316      0.118648
Pd      7.56619      8.31244      7.40598        -0.067590      0.145627     -0.042306
Pd      8.82033     11.91464      6.87324         0.038221      0.024496      0.040608
Pd      9.82587      9.75775      8.07537         0.112565     -0.141368     -0.008288
Pd      8.50461     14.53449      6.45562        -0.062749      0.075650      0.085821
Pd     12.22053      8.97336      7.05549         0.063774     -0.058968     -0.076611
Pd     10.28760      9.93294      5.43859        -0.293174     -0.075912      0.065008
Pd      6.84503      9.17833     12.26349         0.185429      0.018004     -0.041862
Pd     12.21840      6.40854      7.89015         0.093938      0.081352      0.053062
Pd      5.65277     10.54574      9.94108         0.046428     -0.041121      0.040335
Pd      7.61591      6.73749     13.04983         0.076453      0.016116     -0.077171
Ir     11.31442      9.62164     12.96157         0.056998      0.021875     -0.030918
Ir     13.21232      9.19071     11.31742        -0.160058      0.086881     -0.151908
Ir      9.16335      8.56533     13.95404         0.075619     -0.021172     -0.003911
Ir     10.27662     10.55093     15.12579         0.009997      0.107463      0.055057
Ir      7.03610     11.81361     11.76611         0.135813      0.021112     -0.084542
Ir     14.56883     11.12641     10.47588        -0.079635     -0.078508     -0.051492
Ir     12.44477     10.46422      9.24475        -0.224410      0.269335     -0.107546
Ir      8.88767     10.84580     12.93282        -0.040930      0.036562     -0.034115
Ir     10.05065     10.23108     10.70972        -0.020196     -0.047098      0.043731
Ir     13.28613     11.32376     12.62449         0.027938     -0.093705      0.200031
Ir     11.05972     12.13557     13.27751        -0.019194      0.059919      0.062656
Ir      8.04625     11.59613      9.46466         0.058260     -0.083214     -0.034937
Ir     11.38691      8.07974      9.76774        -0.004354      0.159668     -0.088598
Ir      6.99946     13.32684      8.19355        -0.045508     -0.058177      0.038072
Ir      9.22945      7.17051      9.05704        -0.040070      0.029453     -0.037309
Ir      7.86297      9.08443      9.88682        -0.052691      0.041288     -0.103679
Ir     10.49647     12.21032      8.97107        -0.057640      0.104378     -0.005990
Ir      9.41917      7.85344     11.51930         0.021174      0.005526     -0.025260
Ir     13.80590      8.20807      9.00067        -0.030391      0.226988     -0.005554
