152
# total energy = -1023.30670949 eVH     10.35389      5.87395      7.64558         0.488004      0.082414      0.711672
H     10.62451     15.10445      7.64558        -0.096563     -0.073883      0.786214
H     10.62451      5.87395     13.33282         0.148007      0.131767     -0.634906
H     10.35389     15.10445     13.33282        -0.192365     -0.111141     -0.551651
H      7.64558     10.35389      5.87395         0.312660     -0.021222      0.194547
H      7.64558     10.62451     15.10445         0.673328     -0.227633     -0.124313
H     13.33282     10.62451      5.87395        -0.757623     -0.127647      0.203165
H     13.33282     10.35389     15.10445        -0.469745     -0.118708     -0.044030
H      5.87395      7.64558     10.35389         0.213021      1.079033     -0.248814
H     15.10445      7.64558     10.62451        -0.171952      0.459522     -0.110516
H      5.87395     13.33282     10.62451         0.162620     -0.433038     -0.067613
H     15.10445     13.33282     10.35389        -0.126931     -0.915216      0.017930
H      5.87395     10.35389      7.64558         0.136131      0.095518      0.462570
H     15.10445     10.62451      7.64558         0.094849      0.008349      1.096369
H      5.87395     10.62451     13.33282         0.188282     -0.035270     -0.393112
H     15.10445     10.35389     13.33282        -0.111424     -0.058787     -0.568130
H     10.35389      7.64558      5.87395         0.116202      0.889168      0.193660
H     10.62451      7.64558     15.10445        -0.001682      0.475135     -0.167293
H     10.62451     13.33282      5.87395        -0.024594     -0.596925      0.232673
H     10.35389     13.33282     15.10445        -0.321770     -0.881682     -0.116049
H      7.64558      5.87395     10.35389         0.439825      0.097158     -0.044928
H      7.64558     15.10445     10.62451         0.861763     -0.276548      0.041238
H     13.33282      5.87395     10.62451        -0.454100      0.183989     -0.065020
H     13.33282     15.10445     10.35389        -0.654980     -0.094883      0.164000
H     12.45634     12.45634     19.01126         0.252153      0.265678     -0.229125
H     19.01126     19.01126     19.01126        -0.251313     -0.233089     -0.260457
H     19.01126     12.45634     12.45634        -0.238314      0.273289      0.237322
H     12.45634     19.01126     12.45634         0.224362     -0.264487      0.250169
C     10.35284      5.61067      6.59456        -0.195497     -0.376762     -0.016808
C     10.62556     15.36773      6.59456         0.059972      0.384965     -1.158679
C     10.62556      5.61067     14.38384        -0.055411     -0.224058      0.797688
C     10.35284     15.36773     14.38384         0.055818      0.879367      0.385730
C      6.59456     10.35284      5.61067        -0.375739     -0.036441     -0.179878
C      6.59456     10.62556     15.36773        -0.869950      0.217968      0.379181
C     14.38384     10.62556      5.61067         0.437548      0.291503     -0.511813
C     14.38384     10.35284     15.36773         0.800004     -0.120634      0.444035
C      5.61067      6.59456     10.35284        -0.309601     -0.643065      0.422285
C     15.36773      6.59456     10.62556         0.171618     -0.521356      0.070681
C      5.61067     14.38384     10.62556        -0.145755      0.401904     -0.022041
C     15.36773     14.38384     10.35284         0.390784     -0.055624     -0.114882
C      5.61067     10.35284      6.59456        -0.256959     -0.016829     -0.782736
C     15.36773     10.62556      6.59456         0.605636     -0.283695     -1.336883
C      5.61067     10.62556     14.38384        -0.357190      0.001954      0.421786
C     15.36773     10.35284     14.38384         0.510338     -0.168953      1.156251
C     10.35284      6.59456      5.61067        -0.171974     -0.495715     -0.451946
C     10.62556      6.59456     15.36773         0.050124     -0.566793      0.256208
C     10.62556     14.38384      5.61067         0.117702      1.024900     -0.480007
C     10.35284     14.38384     15.36773         0.238331      0.568213      0.560285
C      6.59456      5.61067     10.35284        -0.106066     -0.807514      0.072585
C      6.59456     15.36773     10.62556        -1.506788      0.401506      0.102805
C     14.38384      5.61067     10.62556         0.653043     -0.266463     -0.011960
C     14.38384     15.36773     10.35284        -0.437427      0.683335     -0.314902
C     10.40319      3.19606      7.29314         0.008089      0.859520     -0.304094
C     10.35913      4.25547      6.23373        -0.048219     -0.463068      0.527662
C      0.08601      7.29314      7.29314        -0.007332     -0.278509     -0.487609
C      0.13007      6.23373      6.23373         0.024571      0.121942      0.194359
C      0.08601      3.19606      3.19606        -0.012201      0.703356      0.196661
C      0.13007      4.25547      4.25547        -0.089862     -0.184836     -0.206440
C     10.40319      7.29314      3.19606        -0.006679     -0.677905      0.554133
C     10.35913      6.23373      4.25547        -0.035570      0.297414     -0.613518
C      7.29314     10.40319      3.19606        -0.346976      0.029049      0.919461
C      6.23373     10.35913      4.25547         0.184191      0.034212     -0.123202
C      7.29314      0.08601      7.29314        -0.321205     -0.040130     -0.295400
C      6.23373      0.13007      6.23373         0.344125     -0.054538      0.339669
C      3.19606      0.08601      3.19606         0.550269     -0.035014      0.685808
C      4.25547      0.13007      4.25547        -0.091199     -0.035998     -0.382884
C      3.19606     10.40319      7.29314         0.726959      0.001273     -0.412886
C      4.25547     10.35913      6.23373        -0.165376      0.037762      0.097021
C      3.19606      7.29314     10.40319         0.650337     -1.294782     -0.011613
C      4.25547      6.23373     10.35913        -0.634659      0.910524      0.083396
C      7.29314      7.29314      0.08601        -0.648405     -0.188408     -0.019270
C      6.23373      6.23373      0.13007         0.208249      0.202409      0.012014
C      3.19606      3.19606      0.08601         0.265439      0.290807     -0.021169
C      4.25547      4.25547      0.13007        -0.071714     -0.037486     -0.000293
C      7.29314      3.19606     10.40319        -0.363543      0.976974      0.015334
C      6.23373      4.25547     10.35913         1.064147     -0.020118      0.013230
O     10.43466      3.58206      8.50569        -0.043122      0.041973      0.385365
O     10.54374     17.39634      8.50569        -0.036643     -0.164524      0.572536
O     10.54374      3.58206     12.47271         0.051608      0.045758     -0.294596
O     10.43466     17.39634     12.47271        -0.012651     -0.133121     -0.623381
O      8.50569     10.43466      3.58206         0.365304     -0.024432     -0.024891
O      8.50569     10.54374     17.39634         0.478564      0.045106     -0.147393
O     12.47271     10.54374      3.58206        -0.501283      0.012104      0.087748
O     12.47271     10.43466     17.39634        -0.808420      0.001198     -0.194675
O      3.58206      8.50569     10.43466         0.118054      1.055669      0.016595
O     17.39634      8.50569     10.54374        -0.037685      0.323303      0.074063
O      3.58206     12.47271     10.54374         0.071800     -0.460048      0.050099
O     17.39634     12.47271     10.43466        -0.175689     -0.880468      0.052010
O      3.58206     10.43466      8.50569        -0.065992     -0.070594      0.322499
O     17.39634     10.54374      8.50569        -0.129106      0.042471      0.458335
O      3.58206     10.54374     12.47271         0.081776     -0.021281     -0.619741
O     17.39634     10.43466     12.47271        -0.183344      0.051833     -0.768817
O     10.43466      8.50569      3.58206         0.030557      0.667652      0.157170
O     10.54374      8.50569     17.39634         0.062795      0.464351     -0.088061
O     10.54374     12.47271      3.58206        -0.019807     -0.773521      0.238398
O     10.43466     12.47271     17.39634         0.034830     -0.871161     -0.243943
O      8.50569      3.58206     10.43466         0.451869      0.027814     -0.037181
O      8.50569     17.39634     10.54374         0.673847     -0.262759     -0.058122
O     12.47271      3.58206     10.54374        -0.461824      0.152602      0.043469
O     12.47271     17.39634     10.43466        -0.531249     -0.013616     -0.009397
O     11.90042     11.90042     19.56718        -0.292433     -0.314854      0.254362
O     19.56718     19.56718     19.56718         0.283436      0.267154      0.310504
O     19.56718     11.90042     11.90042         0.262727     -0.321837     -0.237671
O     11.90042     19.56718     11.90042        -0.271291      0.280581     -0.265820
O      9.45224      1.03696      9.45224        -0.081797      0.041979     -0.068914
O      1.03696      9.45224      9.45224         0.017996     -0.165635     -0.099285
O      1.03696      1.03696      1.03696         0.001293      0.071301      0.183924
O      9.45224      9.45224      1.03696        -0.062825     -0.094003      0.112273
Zr     10.48920      2.52580     10.48920        -0.003047     -0.093661     -0.061181
Zr     10.48920     18.45260     10.48920         0.119563      0.333874     -0.005981
Zr     10.48920     10.48920      2.52580         0.020166     -0.058421     -0.417610
Zr     10.48920     10.48920     18.45260        -0.165199     -0.064482      0.389828
Zr      2.52580     10.48920     10.48920        -0.334973      0.247693     -0.109706
Zr     18.45260     10.48920     10.48920         0.273978     -0.009822     -0.286369
Pd      8.95959     10.12062     13.32713        -0.042667     -0.020017      0.010428
Pd     10.68599      9.68797     10.79539        -0.007383     -0.022289     -0.064419
Pd     13.72290      8.44801     12.57805        -0.015927      0.039674     -0.012636
Pd     10.99140     10.90470     14.98357        -0.024963     -0.013615      0.017389
Pd     12.92316     11.06867     13.01213         0.011224      0.036461      0.052082
Pd     15.08334     11.07801     11.31478        -0.019972     -0.035363     -0.002572
Pd      6.61001      7.71840     12.32799         0.000802      0.026318      0.015032
Pd      9.31514      7.30653      9.85251        -0.007027     -0.002891     -0.020430
Pd      9.24236      7.48052     12.61526         0.008523     -0.005872     -0.021390
Pd     11.65010      7.18540     11.40213         0.000782      0.015347     -0.017108
Pd     11.70176      7.98297      8.86411        -0.001384     -0.023813     -0.042653
Pd      7.35779     11.78088     11.78249        -0.020202     -0.004865     -0.010020
Pd      9.19143     14.71679      9.44189        -0.000442     -0.036847      0.001450
Pd      8.38176     12.55249     14.26821        -0.025779     -0.015689      0.001141
Pd     14.09691     14.25303      8.31322         0.004085     -0.004812      0.000094
Pd     11.51313     13.63541      8.74435         0.014760     -0.014149      0.018210
Pd     14.15176     11.69390      8.88880        -0.011435     -0.005978     -0.000433
Pd      8.71663     14.03253     12.08490        -0.004416     -0.011268      0.011648
Pd     12.26269     13.54167     14.14194        -0.014708      0.025616     -0.006263
Pd     11.34789     14.39760     11.44601         0.005889     -0.029323      0.004417
Pd     14.07026     13.59765     12.25976        -0.005249     -0.013924     -0.008725
Pd     12.41395     12.12017     10.73969        -0.007516     -0.052773      0.014194
Pd     12.75269     12.54488      6.67149        -0.004299      0.008737     -0.010601
Pd     13.93734      8.99795      7.96070         0.007094     -0.012952     -0.040806
Pd      6.94503      8.49851      8.75741         0.005722     -0.012620     -0.016242
Pd      5.62327     10.09920     10.69452        -0.004997     -0.008057     -0.047115
Pd      9.39419      9.46874      8.07049        -0.000905     -0.021895     -0.054034
Pd      8.56247      7.02759      7.22692        -0.014273     -0.024844     -0.015407
Pd      9.75455     12.11297     10.39474        -0.003713     -0.022877      0.026668
Pd     11.63108     10.81932      8.45326        -0.013773     -0.007545     -0.032395
Pd     11.59288      9.09067      6.43591         0.014638     -0.006914     -0.035877
Pd     10.10316     11.33685      6.24250         0.017910     -0.016432     -0.058968
Ir     11.28172      9.04975     13.18005        -0.018260      0.043477     -0.054441
Ir     13.22058      9.59887     10.34779        -0.008037     -0.034437     -0.037036
Ir     10.54530     12.22059     12.76388        -0.010037     -0.020837      0.024357
Ir      7.61022     11.00616      9.25206         0.009677     -0.025209     -0.010829
Ir      8.93250     12.55616      8.07355         0.088287     -0.032392     -0.022010
Ir      8.19518      9.31627     11.00702        -0.007658     -0.008329     -0.014067
