152
# total energy = -1060.82482756 eVH     10.35389      5.87395      7.64558        -0.466267      0.144970      1.183453
H     10.62451     15.10445      7.64558         0.084998     -0.109316      0.805203
H     10.62451      5.87395     13.33282        -0.265259      0.058137     -0.617956
H     10.35389     15.10445     13.33282         0.027254     -0.293408     -0.504669
H      7.64558     10.35389      5.87395         0.722868     -0.048691      0.208929
H      7.64558     10.62451     15.10445         0.197614      0.015083     -0.061038
H     13.33282     10.62451      5.87395        -0.622624     -0.080776      0.161945
H     13.33282     10.35389     15.10445        -0.306500     -0.061273     -0.084435
H      5.87395      7.64558     10.35389         0.124236      0.378014     -0.021778
H     15.10445      7.64558     10.62451        -0.117435      0.840559      0.393763
H      5.87395     13.33282     10.62451         0.121928     -0.571962     -0.002304
H     15.10445     13.33282     10.35389        -0.250831     -0.469730      0.094118
H      5.87395     10.35389      7.64558         0.260739      0.113502      0.348345
H     15.10445     10.62451      7.64558        -0.178865     -0.074903      0.328172
H      5.87395     10.62451     13.33282         0.014947      0.226674     -0.762492
H     15.10445     10.35389     13.33282         0.037441     -0.242740     -0.644378
H     10.35389      7.64558      5.87395        -0.091330      0.451366      0.274407
H     10.62451      7.64558     15.10445         0.348639      0.697838     -0.115694
H     10.62451     13.33282      5.87395         0.307432     -0.649220      0.128531
H     10.35389     13.33282     15.10445         0.139228     -0.527768     -0.115558
H      7.64558      5.87395     10.35389         0.443200      0.151913      0.004749
H      7.64558     15.10445     10.62451         0.412276     -0.156920      0.258334
H     13.33282      5.87395     10.62451        -0.313748      0.104112      0.029640
H     13.33282     15.10445     10.35389        -0.559212     -0.243221      0.212098
H     12.45634     12.45634     19.01126         0.245518      0.267230     -0.236640
H     19.01126     19.01126     19.01126        -0.253904     -0.265060     -0.231114
H     19.01126     12.45634     12.45634        -0.232213      0.261837      0.249988
H     12.45634     19.01126     12.45634         0.295448     -0.212767      0.239698
C     10.35284      5.61067      6.59456         0.454732     -0.405898     -1.196977
C     10.62556     15.36773      6.59456        -0.168980      0.844331     -0.707094
C     10.62556      5.61067     14.38384         0.327991     -0.258625      0.602531
C     10.35284     15.36773     14.38384        -0.144871      0.311857      0.618084
C      6.59456     10.35284      5.61067        -0.713152     -0.115776     -0.188938
C      6.59456     10.62556     15.36773        -0.558387      0.073649      0.364387
C     14.38384     10.62556      5.61067         1.063693      0.035108     -0.485017
C     14.38384     10.35284     15.36773         0.284202     -0.074569      0.314416
C      5.61067      6.59456     10.35284        -0.353631     -0.531687      0.011954
C     15.36773      6.59456     10.62556         0.215879     -0.872790     -0.320809
C      5.61067     14.38384     10.62556        -0.214903      0.635082     -0.265581
C     15.36773     14.38384     10.35284         0.369539      0.891491     -0.112531
C      5.61067     10.35284      6.59456        -0.232539     -0.136374     -0.378328
C     15.36773     10.62556      6.59456         0.195347      0.060579     -0.300359
C      5.61067     10.62556     14.38384        -0.423723     -0.073969      1.338905
C     15.36773     10.35284     14.38384         0.259308     -0.020082      0.957366
C     10.35284      6.59456      5.61067        -0.038978     -0.329791     -0.467012
C     10.62556      6.59456     15.36773        -0.028503     -0.848740      0.323956
C     10.62556     14.38384      5.61067        -0.322156     -0.033460     -0.774291
C     10.35284     14.38384     15.36773        -0.250553      0.759700      0.294462
C      6.59456      5.61067     10.35284        -0.488303     -0.318787      0.109907
C      6.59456     15.36773     10.62556        -0.383465      0.511286      0.048756
C     14.38384      5.61067     10.62556         0.265038     -0.402313      0.106930
C     14.38384     15.36773     10.35284         0.915176      0.307699     -0.055177
C     10.40319      3.19606      7.29314         0.009242      0.687655     -0.369938
C     10.35913      4.25547      6.23373         0.006455     -0.497560      0.327610
C      0.08601      7.29314      7.29314        -0.014161     -0.707685     -0.584640
C      0.13007      6.23373      6.23373        -0.106381      0.857239      0.138911
C      0.08601      3.19606      3.19606        -0.027859      0.331917      0.349752
C      0.13007      4.25547      4.25547         0.061498     -0.171836     -0.659804
C     10.40319      7.29314      3.19606        -0.031802     -1.156612      0.994307
C     10.35913      6.23373      4.25547         0.011547      0.359568     -0.202791
C      7.29314     10.40319      3.19606        -0.834301     -0.044761      0.357184
C      6.23373     10.35913      4.25547         0.231310      0.057175     -0.453313
C      7.29314      0.08601      7.29314        -0.898244      0.011149     -0.408120
C      6.23373      0.13007      6.23373         0.119932      0.016285      0.086249
C      3.19606      0.08601      3.19606         0.385987     -0.003694      0.331019
C      4.25547      0.13007      4.25547        -0.246961     -0.050152     -0.180510
C      3.19606     10.40319      7.29314         0.486578     -0.043425     -1.136240
C      4.25547     10.35913      6.23373        -0.231215     -0.033782      0.129634
C      3.19606      7.29314     10.40319         0.784688     -0.471809      0.017133
C      4.25547      6.23373     10.35913        -0.107875      0.168068     -0.004266
C      7.29314      7.29314      0.08601        -0.398698     -0.288658     -0.014579
C      6.23373      6.23373      0.13007         0.361812      0.097295     -0.165062
C      3.19606      3.19606      0.08601         0.332928      0.672069     -0.012095
C      4.25547      4.25547      0.13007        -0.369440     -0.279898      0.023189
C      7.29314      3.19606     10.40319        -0.216133      0.631287      0.018204
C      6.23373      4.25547     10.35913         0.056825     -0.226457     -0.002708
O     10.43466      3.58206      8.50569        -0.025631      0.086832      0.327800
O     10.54374     17.39634      8.50569         0.075328     -0.022779      0.433196
O     10.54374      3.58206     12.47271         0.049274      0.199689     -0.548330
O     10.43466     17.39634     12.47271         0.043153      0.009915     -0.523014
O      8.50569     10.43466      3.58206         0.637699     -0.073863      0.087359
O      8.50569     10.54374     17.39634         0.870671      0.061086     -0.135734
O     12.47271     10.54374      3.58206        -0.349323      0.058542      0.041674
O     12.47271     10.43466     17.39634        -0.335254     -0.014032      0.083767
O      3.58206      8.50569     10.43466        -0.004567      0.421296     -0.081931
O     17.39634      8.50569     10.54374        -0.130808      0.421340      0.026159
O      3.58206     12.47271     10.54374         0.135744     -0.664102     -0.005843
O     17.39634     12.47271     10.43466        -0.267702     -0.715821     -0.004445
O      3.58206     10.43466      8.50569         0.136670     -0.045648      0.865427
O     17.39634     10.54374      8.50569         0.013803      0.042675      0.316645
O      3.58206     10.54374     12.47271         0.057212      0.014605     -0.415956
O     17.39634     10.43466     12.47271        -0.049372      0.016693     -0.374962
O     10.43466      8.50569      3.58206        -0.064509      0.531912     -0.161505
O     10.54374      8.50569     17.39634         0.032456      0.746135     -0.124667
O     10.54374     12.47271      3.58206         0.058994     -0.358262      0.087165
O     10.43466     12.47271     17.39634        -0.063461     -0.731482     -0.243201
O      8.50569      3.58206     10.43466         0.319237      0.038028     -0.062659
O      8.50569     17.39634     10.54374         0.535752     -0.140101      0.025975
O     12.47271      3.58206     10.54374        -0.437059      0.109907      0.015307
O     12.47271     17.39634     10.43466        -0.617466     -0.087954      0.048540
O     11.90042     11.90042     19.56718        -0.251612     -0.282645      0.216623
O     19.56718     19.56718     19.56718         0.296193      0.298277      0.255212
O     19.56718     11.90042     11.90042         0.243573     -0.291272     -0.306390
O     11.90042     19.56718     11.90042        -0.289679      0.165153     -0.250949
O      9.45224      1.03696      9.45224        -0.112514      0.120673     -0.091466
O      1.03696      9.45224      9.45224         0.139947     -0.147314     -0.131964
O      1.03696      1.03696      1.03696         0.158675      0.184397     -0.034120
O      9.45224      9.45224      1.03696        -0.178975     -0.211221      0.022295
Zr     10.48920      2.52580     10.48920         0.032164     -0.239126      0.233026
Zr     10.48920     18.45260     10.48920        -0.247294      0.288535     -0.292214
Zr     10.48920     10.48920      2.52580         0.147189      0.515543     -0.170264
Zr     10.48920     10.48920     18.45260         0.008558     -0.119269      0.450603
Zr      2.52580     10.48920     10.48920        -0.495824      0.103296      0.395408
Zr     18.45260     10.48920     10.48920         0.245138     -0.177612      0.072814
Pd      9.16490     14.48157      9.09908        -0.118007     -0.137311      0.223766
Pd      8.27894     13.35189     13.63200         0.080371     -0.156577     -0.064897
Pd     11.88146     14.51063      8.88799        -0.035616     -0.348483     -0.003115
Pd     12.23995     12.77599     10.83257         0.182784      0.157305      0.271453
Pd     11.96644      7.13132     12.34441        -0.058752     -0.084241     -0.142656
Pd     10.98328     15.23393     11.27440        -0.059761      0.053511      0.075282
Pd      9.54224     13.03739     11.29701         0.039973     -0.024751     -0.055217
Pd     13.64431     12.58084      8.35631         0.410227      0.079576     -0.003523
Pd     11.74777     11.72107      6.71953        -0.261736     -0.266415      0.256715
Pd      7.59726      8.28398      7.42335        -0.062920      0.153633     -0.072878
Pd      8.80178     11.89242      6.87313         0.067389      0.161453     -0.011273
Pd      9.83290      9.76990      8.09156         0.180574     -0.332976     -0.047635
Pd      8.50183     14.52711      6.46740        -0.058471      0.032832      0.075335
Pd     12.22673      9.00858      7.06606         0.021796     -0.096169     -0.105110
Pd     10.27213      9.90835      5.43936        -0.286594     -0.041762      0.149409
Pd      6.83133      9.19779     12.26082         0.253413     -0.000286     -0.036148
Pd     12.22538      6.43350      7.88784         0.045399      0.085669      0.035159
Pd      5.66928     10.54180      9.92675         0.049817     -0.049508      0.060925
Pd      7.60195      6.75940     13.07541         0.077585      0.047555     -0.093371
Ir     11.34226      9.61875     12.98412        -0.059232      0.085247     -0.065998
Ir     13.24593      9.17965     11.35120        -0.245209      0.171231     -0.223757
Ir      9.15604      8.59118     13.95658         0.096705      0.025013     -0.072294
Ir     10.28061     10.55299     15.13655         0.025994      0.171624     -0.061832
Ir      7.04784     11.82909     11.75125         0.108861      0.025355     -0.154924
Ir     14.56735     11.13432     10.46025         0.047188     -0.102455      0.023155
Ir     12.44534     10.43966      9.27944        -0.287324      0.404027     -0.121088
Ir      8.88882     10.87354     12.93467         0.029402     -0.118416      0.052763
Ir     10.05222     10.21048     10.72818         0.002414     -0.027096      0.049347
Ir     13.30743     11.34235     12.62057        -0.049541     -0.173140      0.269373
Ir     11.07008     12.13238     13.26683         0.059055      0.104193      0.087498
Ir      8.06783     11.56130      9.44964         0.114027     -0.000615      0.054327
Ir     11.39871      8.06287      9.80303         0.035136      0.196940     -0.074271
Ir      7.01010     13.32285      8.22911         0.016637     -0.067432     -0.004266
Ir      9.25786      7.14533      9.07650        -0.089107      0.095830     -0.015776
Ir      7.87347      9.05670      9.90239        -0.019793      0.030145     -0.088359
Ir     10.53282     12.19958      8.94004        -0.155160      0.036661     -0.116130
Ir      9.42728      7.83691     11.54083         0.013433      0.058993      0.014857
Ir     13.80773      8.22295      9.01431         0.052591      0.114029     -0.052217
