152
# total energy = -1005.98689051 eVH     10.35389      5.87395      7.64558         0.258451      0.037187      0.638338
H     10.62451     15.10445      7.64558        -0.108767     -0.142527      0.524359
H     10.62451      5.87395     13.33282         0.486443      0.120627     -0.584510
H     10.35389     15.10445     13.33282         0.072154     -0.184567     -0.547568
H      7.64558     10.35389      5.87395         0.370669      0.054143      0.171294
H      7.64558     10.62451     15.10445         0.691591      0.471507     -0.041849
H     13.33282     10.62451      5.87395        -0.532133      0.418925      0.075732
H     13.33282     10.35389     15.10445        -0.800864     -0.095365      0.005792
H      5.87395      7.64558     10.35389         0.247141      0.754116     -0.328093
H     15.10445      7.64558     10.62451        -0.094820      0.484207      0.285176
H      5.87395     13.33282     10.62451         0.157832     -0.698210     -0.160023
H     15.10445     13.33282     10.35389        -0.005686     -1.040149     -0.329591
H      5.87395     10.35389      7.64558         0.255375      0.190921      0.645738
H     15.10445     10.62451      7.64558        -0.110606      0.407077      0.765733
H      5.87395     10.62451     13.33282         0.139596      0.333117     -0.695839
H     15.10445     10.35389     13.33282        -0.044298     -0.075621     -0.698593
H     10.35389      7.64558      5.87395         0.376136      1.046281     -0.009198
H     10.62451      7.64558     15.10445         0.536276      0.536209     -0.118793
H     10.62451     13.33282      5.87395        -0.396833     -0.838280      0.188141
H     10.35389     13.33282     15.10445        -0.043639     -0.433438     -0.217176
H      7.64558      5.87395     10.35389         0.853290      0.090461     -0.291114
H      7.64558     15.10445     10.62451         0.831150     -0.199877      0.003406
H     13.33282      5.87395     10.62451        -0.798425      0.191442      0.590156
H     13.33282     15.10445     10.35389        -0.444746     -0.108225     -0.135317
H     12.45634     12.45634     19.01126         0.235394      0.270823     -0.239605
H     19.01126     19.01126     19.01126        -0.262324     -0.240659     -0.261338
H     19.01126     12.45634     12.45634        -0.266819      0.268561      0.219387
H     12.45634     19.01126     12.45634         0.232312     -0.256368      0.277206
C     10.35284      5.61067      6.59456        -0.431941     -0.699710      0.164320
C     10.62556     15.36773      6.59456         0.064835      0.364533     -0.305300
C     10.62556      5.61067     14.38384        -0.330550     -0.371459     -0.298421
C     10.35284     15.36773     14.38384        -0.007366      0.341183      0.536232
C      6.59456     10.35284      5.61067        -0.266761     -0.005652     -0.348375
C      6.59456     10.62556     15.36773        -0.255780     -0.217397      0.802009
C     14.38384     10.62556      5.61067        -0.251593     -0.397399     -0.522192
C     14.38384     10.35284     15.36773         0.973398     -0.061439      0.254662
C      5.61067      6.59456     10.35284        -0.537866     -0.004915      0.090888
C     15.36773      6.59456     10.62556         0.531649      0.018591     -0.249951
C      5.61067     14.38384     10.62556        -0.328600      0.976731      0.079169
C     15.36773     14.38384     10.35284         0.308443      1.044387      0.050049
C      5.61067     10.35284      6.59456        -0.186896     -0.244794     -0.609224
C     15.36773     10.62556      6.59456         0.445894     -0.280137      0.114987
C      5.61067     10.62556     14.38384        -0.708024     -0.346179     -0.075215
C     15.36773     10.35284     14.38384         0.383003     -0.063829      1.022671
C     10.35284      6.59456      5.61067        -0.214851     -0.256631     -0.656201
C     10.62556      6.59456     15.36773        -0.266801      0.130430      0.450741
C     10.62556     14.38384      5.61067         0.197708      1.062574     -0.347737
C     10.35284     14.38384     15.36773         0.018981      0.543307      0.442939
C      6.59456      5.61067     10.35284        -0.157655     -0.706005      0.246229
C      6.59456     15.36773     10.62556        -1.010146      0.290768      0.079795
C     14.38384      5.61067     10.62556         0.496137     -0.552559     -0.365929
C     14.38384     15.36773     10.35284         0.216684      0.460548     -0.101051
C     10.40319      3.19606      7.29314         0.011950      0.682747     -0.479732
C     10.35913      4.25547      6.23373         0.086560     -0.723768     -0.022007
C      0.08601      7.29314      7.29314        -0.044274     -0.407911     -0.312142
C      0.13007      6.23373      6.23373        -0.023071      0.085528      0.572105
C      0.08601      3.19606      3.19606        -0.014162      1.263755      0.283037
C      0.13007      4.25547      4.25547         0.049880     -0.777990     -0.154600
C     10.40319      7.29314      3.19606         0.011174     -0.329651      0.335897
C     10.35913      6.23373      4.25547         0.026332      0.006478     -0.855316
C      7.29314     10.40319      3.19606        -0.329788      0.022195      0.565020
C      6.23373     10.35913      4.25547         0.203932      0.063367     -0.095341
C      7.29314      0.08601      7.29314        -0.519194     -0.064884     -0.375551
C      6.23373      0.13007      6.23373         0.679526     -0.052381      0.481461
C      3.19606      0.08601      3.19606         0.708235     -0.035264      0.568406
C      4.25547      0.13007      4.25547        -0.579399     -0.085029     -0.547348
C      3.19606     10.40319      7.29314         0.480677     -0.014904     -0.771092
C      4.25547     10.35913      6.23373        -0.425512      0.047536      0.199472
C      3.19606      7.29314     10.40319         0.292267     -1.272278      0.043684
C      4.25547      6.23373     10.35913        -0.751605      0.107229      0.153538
C      7.29314      7.29314      0.08601        -0.407643     -0.373289     -0.027415
C      6.23373      6.23373      0.13007         0.467734      0.214259     -0.018313
C      3.19606      3.19606      0.08601         0.492097      0.374756     -0.040415
C      4.25547      4.25547      0.13007        -0.155899     -0.648336     -0.034849
C      7.29314      3.19606     10.40319        -0.324456      0.433184      0.076599
C      6.23373      4.25547     10.35913         0.276622     -0.686300      0.143192
O     10.43466      3.58206      8.50569        -0.017525      0.104323      0.502429
O     10.54374     17.39634      8.50569         0.036565     -0.175215      0.485306
O     10.54374      3.58206     12.47271         0.055128     -0.086902     -0.185528
O     10.43466     17.39634     12.47271        -0.038826     -0.183137     -0.550827
O      8.50569     10.43466      3.58206         0.313173     -0.002279      0.028476
O      8.50569     10.54374     17.39634         0.629140      0.034337     -0.144319
O     12.47271     10.54374      3.58206        -0.699207      0.084336      0.093970
O     12.47271     10.43466     17.39634        -0.437750      0.025368     -0.109785
O      3.58206      8.50569     10.43466         0.179126      1.039725     -0.042251
O     17.39634      8.50569     10.54374        -0.160781      0.539719      0.076401
O      3.58206     12.47271     10.54374         0.085092     -0.367436      0.049107
O     17.39634     12.47271     10.43466        -0.156933     -0.546640     -0.022735
O      3.58206     10.43466      8.50569         0.077314     -0.065555      0.591244
O     17.39634     10.54374      8.50569        -0.110744      0.066221      0.524167
O      3.58206     10.54374     12.47271         0.045896      0.049043     -0.524208
O     17.39634     10.43466     12.47271        -0.222115     -0.038785     -0.601808
O     10.43466      8.50569      3.58206        -0.040062      0.458958      0.135851
O     10.54374      8.50569     17.39634         0.050065      0.530613     -0.159737
O     10.54374     12.47271      3.58206         0.001497     -1.015713      0.204786
O     10.43466     12.47271     17.39634         0.041874     -0.727845     -0.175230
O      8.50569      3.58206     10.43466         0.508224      0.146166     -0.055057
O      8.50569     17.39634     10.54374         0.487237     -0.196935      0.014683
O     12.47271      3.58206     10.54374        -0.634447      0.231410      0.010238
O     12.47271     17.39634     10.43466        -0.219295      0.068507     -0.055835
O     11.90042     11.90042     19.56718        -0.239429     -0.289769      0.247271
O     19.56718     19.56718     19.56718         0.310797      0.295316      0.301099
O     19.56718     11.90042     11.90042         0.291074     -0.264672     -0.233119
O     11.90042     19.56718     11.90042        -0.241865      0.290714     -0.331819
O      9.45224      1.03696      9.45224        -0.019456      0.087705     -0.073010
O      1.03696      9.45224      9.45224         0.091457     -0.092172     -0.137561
O      1.03696      1.03696      1.03696         0.089980      0.189565      0.049705
O      9.45224      9.45224      1.03696        -0.109498     -0.102926      0.033483
Zr     10.48920      2.52580     10.48920        -0.128756     -0.288174     -0.037001
Zr     10.48920     18.45260     10.48920        -0.075263      0.215301      0.084573
Zr     10.48920     10.48920      2.52580         0.037564     -0.404311     -0.254949
Zr     10.48920     10.48920     18.45260        -0.277439     -0.091463      0.322777
Zr      2.52580     10.48920     10.48920        -0.379172      0.240679      0.293778
Zr     18.45260     10.48920     10.48920         0.237354     -0.003409     -0.224920
Pd     13.60853      8.97849      9.21929         0.000072      0.003390     -0.003555
Pd      5.62840      9.87218     10.13867        -0.000572     -0.002408     -0.003533
Pd      6.77587     11.85458     11.71018        -0.002500     -0.001918     -0.000296
Pd     12.06036     13.00434      7.36915        -0.000463      0.000016     -0.004968
Pd     11.87898      7.73937      7.46302        -0.002489      0.000172     -0.001712
Pd      8.31420      6.84646      6.56585        -0.000539     -0.003996     -0.011216
Pd     10.61620     11.17143      5.64911        -0.012686     -0.001287      0.002509
Pd     14.39771      8.55001      6.74083         0.000908     -0.000909     -0.004667
Pd      9.67218     11.72846      8.13066        -0.003203      0.000802      0.005257
Pd      6.75048      6.79461     12.32794        -0.006406     -0.001935      0.002992
Pd      6.55998      8.13351      7.99837         0.016458      0.041007     -0.033334
Pd      6.53061      8.49698     14.36729        -0.003242     -0.001850      0.005955
Pd     11.49386      6.52242      9.94697        -0.005101      0.000282      0.000047
Pd      9.49553      9.19978      7.15484        -0.009860      0.000273      0.007273
Pd      8.97949     13.98664      9.33621         0.000136      0.000241      0.008199
Pd      9.45915      7.37097     11.71812        -0.006212     -0.000911     -0.007246
Pd     10.62173      8.97790      9.68436        -0.000445     -0.009779     -0.003142
Pd      9.33973     11.54519     10.71720         0.001287      0.008710      0.004812
Pd      8.88835      7.05934      9.13627        -0.006672      0.008935     -0.006398
Pd      8.55355      6.57905     14.24289        -0.000213     -0.000605     -0.002342
Pd      7.64152      9.32996     12.00158        -0.006723     -0.003002      0.007817
Pd     11.96175     10.37906      7.72414        -0.008316     -0.002427     -0.005032
Pd      7.13006     12.01369      9.06560        -0.000348      0.002484      0.000818
Pd      8.13365      9.61401      9.41498         0.004691      0.000593      0.013212
Pd     14.01803      6.49473      8.52053        -0.002451      0.001541      0.001080
Pd     12.62442      8.40060     11.57863         0.001248      0.001810     -0.003726
Pd      8.76779     11.57532     13.40739        -0.004351      0.001033      0.002022
Pd     13.88495     11.93077      8.96559        -0.001070     -0.004716      0.000941
Pd     12.94999     10.70207     13.06784        -0.004374      0.000716      0.004400
Pd     14.78331     10.44465     11.10824        -0.003432     -0.004598      0.004154
Pd     12.07024     10.89973     10.53209        -0.006865      0.000139      0.002968
Pd     11.44194     13.35109      9.93438         0.000293     -0.001153     -0.001078
Pd     13.60048     12.92292     11.62791        -0.001284     -0.001963      0.000196
Pd     11.12046     12.61575     12.54066        -0.003040      0.003694     -0.000523
Pd     10.95191     11.06092     14.81574        -0.001449      0.001806      0.002466
Pd     10.51299      9.73440     12.38205        -0.002848     -0.004544     -0.002528
Pd      9.08509      9.14227     14.42274        -0.000682     -0.001343      0.005685
Pd      8.81879     13.85549     12.03258        -0.004986      0.000722      0.007611
