152
# total energy = -1060.07952570 eVH     10.35389      5.87395      7.64558        -0.278721      0.038166      1.129121
H     10.62451     15.10445      7.64558         0.077062     -0.087366      0.929113
H     10.62451      5.87395     13.33282        -0.257690      0.076837     -0.787828
H     10.35389     15.10445     13.33282         0.096954     -0.302141     -0.870892
H      7.64558     10.35389      5.87395         0.932059     -0.134365      0.187357
H      7.64558     10.62451     15.10445         0.329628     -0.037125     -0.073243
H     13.33282     10.62451      5.87395        -0.860440      0.196272      0.205064
H     13.33282     10.35389     15.10445        -0.278434     -0.013541     -0.068842
H      5.87395      7.64558     10.35389         0.088088      0.416869     -0.009746
H     15.10445      7.64558     10.62451        -0.001915      0.493936     -0.033047
H      5.87395     13.33282     10.62451        -0.015447     -0.960203      0.080139
H     15.10445     13.33282     10.35389        -0.084532     -0.320103      0.003973
H      5.87395     10.35389      7.64558         0.283852      0.112052      0.405898
H     15.10445     10.62451      7.64558        -0.123837     -0.172377      0.665266
H      5.87395     10.62451     13.33282        -0.082988      0.462681     -0.618388
H     15.10445     10.35389     13.33282         0.243428     -0.620722     -0.830506
H     10.35389      7.64558      5.87395        -0.041100      0.485565      0.335484
H     10.62451      7.64558     15.10445         0.262525      0.781587     -0.028543
H     10.62451     13.33282      5.87395         0.128048     -0.574850      0.208226
H     10.35389     13.33282     15.10445         0.038954     -0.287843     -0.145507
H      7.64558      5.87395     10.35389         0.346602      0.100369      0.031361
H      7.64558     15.10445     10.62451         0.378777     -0.118448      0.167123
H     13.33282      5.87395     10.62451        -0.315153      0.130475     -0.029699
H     13.33282     15.10445     10.35389        -0.653752     -0.127404      0.147595
H     12.45634     12.45634     19.01126         0.255918      0.271304     -0.228532
H     19.01126     19.01126     19.01126        -0.246372     -0.268120     -0.245532
H     19.01126     12.45634     12.45634        -0.250859      0.269795      0.235477
H     12.45634     19.01126     12.45634         0.290465     -0.235696      0.234657
C     10.35284      5.61067      6.59456         0.400097     -0.417657     -1.428746
C     10.62556     15.36773      6.59456        -0.153515      0.590640     -0.648954
C     10.62556      5.61067     14.38384         0.382861     -0.338788      0.830646
C     10.35284     15.36773     14.38384        -0.224904      0.223567      1.083157
C      6.59456     10.35284      5.61067        -1.376945      0.021440     -0.231062
C      6.59456     10.62556     15.36773        -0.646092      0.062884      0.366452
C     14.38384     10.62556      5.61067         1.306741     -0.168195     -0.632672
C     14.38384     10.35284     15.36773         0.356846     -0.124192      0.355932
C      5.61067      6.59456     10.35284        -0.287276     -0.651562     -0.021539
C     15.36773      6.59456     10.62556         0.419409     -0.962921      0.034386
C      5.61067     14.38384     10.62556        -0.135760      1.163524     -0.183121
C     15.36773     14.38384     10.35284         0.468559      0.652916     -0.026599
C      5.61067     10.35284      6.59456        -0.372523     -0.099495     -0.731224
C     15.36773     10.62556      6.59456         0.407815      0.117168     -0.733970
C      5.61067     10.62556     14.38384        -0.385563     -0.172325      1.231457
C     15.36773     10.35284     14.38384         0.267903      0.190885      1.463575
C     10.35284      6.59456      5.61067        -0.054611     -0.723305     -0.598112
C     10.62556      6.59456     15.36773        -0.111861     -0.896190      0.350654
C     10.62556     14.38384      5.61067        -0.473872      0.405461     -0.712703
C     10.35284     14.38384     15.36773        -0.158162      0.616594      0.423531
C      6.59456      5.61067     10.35284        -0.515234     -0.334104      0.024712
C      6.59456     15.36773     10.62556        -0.373554      0.448506      0.057940
C     14.38384      5.61067     10.62556         0.447321     -0.370483      0.001228
C     14.38384     15.36773     10.35284         1.120066      0.498446     -0.072123
C     10.40319      3.19606      7.29314        -0.001223      0.685263     -0.337506
C     10.35913      4.25547      6.23373         0.010607     -0.425933      0.289104
C      0.08601      7.29314      7.29314        -0.014160     -0.366212     -0.505765
C      0.13007      6.23373      6.23373        -0.068578      0.857526      0.066293
C      0.08601      3.19606      3.19606        -0.003187      0.681522      0.266336
C      0.13007      4.25547      4.25547         0.032273     -0.269390     -0.543786
C     10.40319      7.29314      3.19606        -0.066916     -1.152797      0.580132
C     10.35913      6.23373      4.25547        -0.038660      0.364315     -0.198667
C      7.29314     10.40319      3.19606        -1.083006     -0.056706      0.193002
C      6.23373     10.35913      4.25547         0.365828      0.085788     -0.540146
C      7.29314      0.08601      7.29314        -0.431846      0.033388     -0.524603
C      6.23373      0.13007      6.23373         0.183068      0.128244      0.128400
C      3.19606      0.08601      3.19606         0.693707      0.024621      0.166371
C      4.25547      0.13007      4.25547        -0.172890     -0.051011     -0.355950
C      3.19606     10.40319      7.29314         0.385811     -0.025762     -0.894151
C      4.25547     10.35913      6.23373        -0.152891     -0.077548      0.099686
C      3.19606      7.29314     10.40319         0.605151     -0.397357      0.002727
C      4.25547      6.23373     10.35913        -0.112858      0.182927      0.001194
C      7.29314      7.29314      0.08601        -0.411784     -0.315696     -0.015068
C      6.23373      6.23373      0.13007         0.180794      0.189083     -0.064700
C      3.19606      3.19606      0.08601         0.289317      0.479430     -0.024175
C      4.25547      4.25547      0.13007        -0.404088     -0.230285     -0.034825
C      7.29314      3.19606     10.40319        -0.278304      0.592712     -0.010995
C      6.23373      4.25547     10.35913         0.005392     -0.110900      0.020155
O     10.43466      3.58206      8.50569        -0.028072      0.092848      0.320009
O     10.54374     17.39634      8.50569         0.062577     -0.129928      0.594360
O     10.54374      3.58206     12.47271         0.027903      0.106360     -0.392712
O     10.43466     17.39634     12.47271         0.090198     -0.047020     -0.386711
O      8.50569     10.43466      3.58206         0.709924     -0.062082      0.012389
O      8.50569     10.54374     17.39634         0.480037      0.057466     -0.078729
O     12.47271     10.54374      3.58206        -0.648388      0.115874      0.204824
O     12.47271     10.43466     17.39634        -0.283547     -0.003666      0.022306
O      3.58206      8.50569     10.43466         0.040298      0.460487     -0.068038
O     17.39634      8.50569     10.54374        -0.058868      0.452437      0.056642
O      3.58206     12.47271     10.54374         0.114186     -0.583078      0.001919
O     17.39634     12.47271     10.43466        -0.171969     -0.741878     -0.056581
O      3.58206     10.43466      8.50569         0.212091     -0.061733      0.786639
O     17.39634     10.54374      8.50569        -0.101152      0.076177      0.559303
O      3.58206     10.54374     12.47271        -0.000768     -0.002826     -0.267946
O     17.39634     10.43466     12.47271         0.038702     -0.012540     -0.224849
O     10.43466      8.50569      3.58206        -0.104430      0.569333     -0.114224
O     10.54374      8.50569     17.39634         0.067379      0.504455     -0.088679
O     10.54374     12.47271      3.58206         0.104883     -0.625740      0.133881
O     10.43466     12.47271     17.39634        -0.060419     -0.654461     -0.254938
O      8.50569      3.58206     10.43466         0.395437      0.026323     -0.036346
O      8.50569     17.39634     10.54374         0.631334     -0.155104      0.047886
O     12.47271      3.58206     10.54374        -0.508484      0.126642      0.035311
O     12.47271     17.39634     10.43466        -0.621718     -0.132536      0.039965
O     11.90042     11.90042     19.56718        -0.274077     -0.307446      0.233056
O     19.56718     19.56718     19.56718         0.303625      0.318807      0.299562
O     19.56718     11.90042     11.90042         0.284941     -0.324835     -0.232240
O     11.90042     19.56718     11.90042        -0.316196      0.229351     -0.202633
O      9.45224      1.03696      9.45224        -0.083475      0.085353     -0.068851
O      1.03696      9.45224      9.45224         0.102514     -0.116564     -0.047865
O      1.03696      1.03696      1.03696         0.083864      0.055850      0.097366
O      9.45224      9.45224      1.03696        -0.060653     -0.131996      0.131099
Zr     10.48920      2.52580     10.48920         0.032318     -0.089210      0.081331
Zr     10.48920     18.45260     10.48920        -0.171845      0.260344     -0.346539
Zr     10.48920     10.48920      2.52580         0.119675      0.355855     -0.347537
Zr     10.48920     10.48920     18.45260        -0.082775     -0.208823      0.189723
Zr      2.52580     10.48920     10.48920        -0.254255      0.128803      0.230814
Zr     18.45260     10.48920     10.48920         0.224482     -0.116003     -0.001020
Pd      9.39734     14.26378      9.35689        -0.000255      0.034134     -0.040089
Pd      8.61593     13.69534     12.98800        -0.018383     -0.012185      0.035734
Pd     12.03701     14.41634      8.73867         0.012132     -0.015790      0.002844
Pd     12.76814     12.82107     10.62791        -0.023892      0.000960      0.041174
Pd     12.14581      7.11678     12.61813        -0.003013     -0.002291      0.005053
Pd     11.21143     14.83503     11.50227        -0.018768      0.040487     -0.024700
Pd     10.07876     12.49767     11.11724        -0.046162      0.057257     -0.054275
Pd     13.48198     12.13422      7.98065         0.014230      0.011991      0.004420
Pd     11.48033     11.55756      6.11296         0.006619      0.005450     -0.002963
Pd      7.85951      8.55354      7.54276         0.016333     -0.046682     -0.007185
Pd      8.73743     11.73086      6.88583        -0.009362      0.013494     -0.015283
Pd     10.31017      9.46645      8.14471        -0.010379     -0.010470     -0.003159
Pd      8.50931     14.43558      6.84109        -0.010640      0.015303     -0.028781
Pd     12.36636      9.03350      6.58422        -0.000990      0.007368      0.011175
Pd      9.74437      9.60963      5.55336         0.000681      0.006977      0.004753
Pd      6.86327      9.45623     12.18469         0.003886      0.005557      0.001586
Pd     12.20899      6.69118      7.87516        -0.001230      0.015333      0.022502
Pd      5.94995     10.46113      9.72530        -0.008791     -0.003783     -0.000464
Pd      7.57679      7.14050     13.27096        -0.007973      0.022483      0.050304
Ir     11.79819      9.70261     13.05773        -0.060198      0.023378      0.027865
Ir     13.57846      8.99351     11.44597        -0.001689      0.033852     -0.008595
Ir      9.42659      8.82610     13.89448        -0.007934      0.034196      0.064715
Ir     10.56013     10.92292     14.87708        -0.010574     -0.022651      0.015928
Ir      7.28825     12.02653     11.36869        -0.019667     -0.015324     -0.024397
Ir     14.69334     10.83926     10.09778        -0.041743      0.018414      0.050512
Ir     12.19764     10.48786      9.65938         0.035084      0.001847     -0.011201
Ir      8.78053     11.03462     13.01581         0.029586     -0.039570     -0.000104
Ir     10.14269      9.86068     11.21623        -0.002432      0.033987     -0.044205
Ir     13.76444     11.36520     12.41338        -0.049596      0.008216      0.037891
Ir     11.64818     12.29669     13.10812        -0.082523     -0.024135      0.006888
Ir      8.53127     11.07467      9.38292        -0.037886      0.041860     -0.027213
Ir     11.59795      7.97655     10.07245         0.009595      0.013457      0.009415
Ir      7.24235     13.00376      8.69957         0.015696      0.007257      0.006502
Ir      9.51859      7.00188      9.11306         0.004625     -0.012648      0.037604
Ir      8.06911      8.74747     10.10009        -0.013079     -0.000895     -0.012366
Ir     10.75992     12.09567      8.53816        -0.013017      0.019928     -0.025091
Ir      9.56671      7.45380     11.66767        -0.018258      0.056024      0.039220
Ir     13.69796      8.70508      8.80374        -0.005731      0.028276      0.030576
