152
# total energy = -1060.49644593 eVH     10.35389      5.87395      7.64558        -0.211237      0.140247      0.989113
H     10.62451     15.10445      7.64558         0.325378     -0.092045      0.809158
H     10.62451      5.87395     13.33282        -0.291233      0.085480     -0.715502
H     10.35389     15.10445     13.33282         0.155819     -0.280588     -0.750255
H      7.64558     10.35389      5.87395         0.850596     -0.211132      0.218615
H      7.64558     10.62451     15.10445         0.247770      0.034918     -0.059580
H     13.33282     10.62451      5.87395        -0.764261      0.062337      0.148205
H     13.33282     10.35389     15.10445        -0.307944     -0.094458     -0.029741
H      5.87395      7.64558     10.35389         0.101126      0.419696      0.007940
H     15.10445      7.64558     10.62451        -0.101495      0.646970      0.213082
H      5.87395     13.33282     10.62451         0.009426     -0.906028      0.099505
H     15.10445     13.33282     10.35389        -0.200173     -0.389394      0.029393
H      5.87395     10.35389      7.64558         0.284339      0.052802      0.363476
H     15.10445     10.62451      7.64558        -0.135995     -0.141570      0.578702
H      5.87395     10.62451     13.33282        -0.047106      0.413317     -0.703598
H     15.10445     10.35389     13.33282         0.176663     -0.442630     -0.912661
H     10.35389      7.64558      5.87395         0.014057      0.504358      0.353781
H     10.62451      7.64558     15.10445         0.230699      0.661392     -0.105624
H     10.62451     13.33282      5.87395         0.058853     -0.556470      0.208377
H     10.35389     13.33282     15.10445         0.064174     -0.350225     -0.123277
H      7.64558      5.87395     10.35389         0.417553      0.135608      0.057946
H      7.64558     15.10445     10.62451         0.389112     -0.130038      0.209094
H     13.33282      5.87395     10.62451        -0.309628      0.122957     -0.015262
H     13.33282     15.10445     10.35389        -0.642572     -0.184346      0.208128
H     12.45634     12.45634     19.01126         0.260691      0.267869     -0.223040
H     19.01126     19.01126     19.01126        -0.249253     -0.270023     -0.236610
H     19.01126     12.45634     12.45634        -0.241914      0.268194      0.242526
H     12.45634     19.01126     12.45634         0.294623     -0.225025      0.237121
C     10.35284      5.61067      6.59456         0.386641     -0.311178     -1.183850
C     10.62556     15.36773      6.59456        -0.236138      0.644764     -0.547380
C     10.62556      5.61067     14.38384         0.339513     -0.280863      0.754856
C     10.35284     15.36773     14.38384        -0.200521      0.345250      0.926097
C      6.59456     10.35284      5.61067        -1.207025      0.008663     -0.211447
C      6.59456     10.62556     15.36773        -0.653714      0.062511      0.370883
C     14.38384     10.62556      5.61067         1.348716     -0.126473     -0.611656
C     14.38384     10.35284     15.36773         0.322350     -0.129159      0.422093
C      5.61067      6.59456     10.35284        -0.273133     -0.610156     -0.009441
C     15.36773      6.59456     10.62556         0.354940     -0.907220     -0.168846
C      5.61067     14.38384     10.62556        -0.192668      1.034177     -0.278539
C     15.36773     14.38384     10.35284         0.456116      0.807639     -0.086424
C      5.61067     10.35284      6.59456        -0.281654     -0.110644     -0.562902
C     15.36773     10.62556      6.59456         0.281516      0.123620     -0.510390
C      5.61067     10.62556     14.38384        -0.294692     -0.150048      1.231334
C     15.36773     10.35284     14.38384         0.170529      0.144855      1.235704
C     10.35284      6.59456      5.61067        -0.037781     -0.676237     -0.420568
C     10.62556      6.59456     15.36773        -0.039284     -0.793908      0.377314
C     10.62556     14.38384      5.61067        -0.457300      0.397032     -0.774384
C     10.35284     14.38384     15.36773        -0.164739      0.660834      0.496104
C      6.59456      5.61067     10.35284        -0.553927     -0.323525      0.037258
C      6.59456     15.36773     10.62556        -0.275588      0.499532      0.086683
C     14.38384      5.61067     10.62556         0.388627     -0.338292      0.059853
C     14.38384     15.36773     10.35284         1.061388      0.368596     -0.111686
C     10.40319      3.19606      7.29314        -0.012178      0.897931     -0.366717
C     10.35913      4.25547      6.23373         0.048261     -0.387957      0.287860
C      0.08601      7.29314      7.29314        -0.015530     -0.519599     -0.495944
C      0.13007      6.23373      6.23373        -0.082901      0.811594      0.045189
C      0.08601      3.19606      3.19606        -0.009575      0.640647      0.270627
C      0.13007      4.25547      4.25547         0.071035     -0.240238     -0.616114
C     10.40319      7.29314      3.19606        -0.045047     -1.073688      0.785570
C     10.35913      6.23373      4.25547        -0.035801      0.350649     -0.228700
C      7.29314     10.40319      3.19606        -0.989683     -0.053715      0.288397
C      6.23373     10.35913      4.25547         0.378276      0.109188     -0.520052
C      7.29314      0.08601      7.29314        -0.756450      0.019250     -0.375861
C      6.23373      0.13007      6.23373         0.172665      0.085654      0.121702
C      3.19606      0.08601      3.19606         0.615266      0.008133      0.180026
C      4.25547      0.13007      4.25547        -0.209406     -0.087611     -0.276246
C      3.19606     10.40319      7.29314         0.499609     -0.035501     -0.960964
C      4.25547     10.35913      6.23373        -0.143997     -0.012392      0.163436
C      3.19606      7.29314     10.40319         0.675168     -0.416404      0.006908
C      4.25547      6.23373     10.35913        -0.113460      0.173542      0.000174
C      7.29314      7.29314      0.08601        -0.404054     -0.301757     -0.021275
C      6.23373      6.23373      0.13007         0.225050      0.122531     -0.143174
C      3.19606      3.19606      0.08601         0.322841      0.543037     -0.022643
C      4.25547      4.25547      0.13007        -0.435925     -0.289587     -0.005392
C      7.29314      3.19606     10.40319        -0.277684      0.628186      0.000508
C      6.23373      4.25547     10.35913         0.017832     -0.164566      0.021589
O     10.43466      3.58206      8.50569        -0.035291      0.040840      0.245607
O     10.54374     17.39634      8.50569         0.062039     -0.068645      0.503478
O     10.54374      3.58206     12.47271         0.032126      0.114422     -0.437138
O     10.43466     17.39634     12.47271         0.079421     -0.050354     -0.499099
O      8.50569     10.43466      3.58206         0.670921     -0.080892      0.050685
O      8.50569     10.54374     17.39634         0.761057      0.082613     -0.117865
O     12.47271     10.54374      3.58206        -0.598751      0.120001      0.204825
O     12.47271     10.43466     17.39634        -0.356253     -0.000388      0.034489
O      3.58206      8.50569     10.43466         0.020781      0.444417     -0.076430
O     17.39634      8.50569     10.54374        -0.086940      0.442440      0.045747
O      3.58206     12.47271     10.54374         0.129964     -0.611668     -0.004402
O     17.39634     12.47271     10.43466        -0.235187     -0.744064     -0.011630
O      3.58206     10.43466      8.50569         0.176759     -0.043876      0.800562
O     17.39634     10.54374      8.50569         0.000952      0.038193      0.322906
O      3.58206     10.54374     12.47271         0.003341      0.004590     -0.294199
O     17.39634     10.43466     12.47271        -0.025615      0.002121     -0.335101
O     10.43466      8.50569      3.58206        -0.108386      0.544123     -0.076773
O     10.54374      8.50569     17.39634         0.054852      0.601704     -0.077915
O     10.54374     12.47271      3.58206         0.098355     -0.583941      0.111664
O     10.43466     12.47271     17.39634        -0.051403     -0.833278     -0.305785
O      8.50569      3.58206     10.43466         0.370512      0.021048     -0.061753
O      8.50569     17.39634     10.54374         0.586523     -0.138835      0.053636
O     12.47271      3.58206     10.54374        -0.505815      0.122466      0.027938
O     12.47271     17.39634     10.43466        -0.617942     -0.096699      0.049766
O     11.90042     11.90042     19.56718        -0.272946     -0.280845      0.222946
O     19.56718     19.56718     19.56718         0.296761      0.315151      0.288845
O     19.56718     11.90042     11.90042         0.272503     -0.312896     -0.251118
O     11.90042     19.56718     11.90042        -0.315075      0.213374     -0.205967
O      9.45224      1.03696      9.45224        -0.118500      0.143041     -0.044473
O      1.03696      9.45224      9.45224         0.147620     -0.140479     -0.047984
O      1.03696      1.03696      1.03696         0.077942      0.083251      0.081867
O      9.45224      9.45224      1.03696        -0.086382     -0.127458      0.139728
Zr     10.48920      2.52580     10.48920         0.042308     -0.163333      0.166358
Zr     10.48920     18.45260     10.48920        -0.179274      0.231342     -0.388192
Zr     10.48920     10.48920      2.52580         0.128114      0.371135     -0.269956
Zr     10.48920     10.48920     18.45260        -0.015457     -0.262768      0.302942
Zr      2.52580     10.48920     10.48920        -0.310171      0.090611      0.256069
Zr     18.45260     10.48920     10.48920         0.188922     -0.154396     -0.037341
Pd      9.31750     14.39600      9.18777         0.005648      0.025689      0.010605
Pd      8.57559     13.70725     13.10121        -0.016074     -0.062002      0.043591
Pd     12.03247     14.35630      8.85180        -0.065173      0.069659     -0.044792
Pd     12.55577     12.82684     10.86900        -0.071288     -0.061040      0.006436
Pd     12.09509      7.13461     12.53135        -0.011651     -0.032169      0.049153
Pd     11.02942     15.09102     11.33060         0.006615      0.004735      0.020690
Pd      9.90010     12.72962     11.00383        -0.014958      0.045209      0.103597
Pd     13.56339     12.26346      8.05476         0.016534      0.026591      0.035003
Pd     11.54477     11.65066      6.15633         0.036008      0.069084      0.032320
Pd      7.87592      8.17954      7.48451        -0.039319      0.028061      0.034131
Pd      8.72375     11.79538      6.83688        -0.006944      0.012556     -0.029818
Pd     10.07638      9.54628      8.22522        -0.046594      0.044279     -0.004109
Pd      8.49209     14.50523      6.68702        -0.064558     -0.019155     -0.098545
Pd     12.30835      9.25267      6.97400         0.050283     -0.050415      0.021173
Pd      9.82601      9.64026      5.59999         0.062507      0.034645     -0.046852
Pd      6.93645      9.43540     12.24264        -0.058397     -0.030730     -0.034905
Pd     12.28301      6.74320      7.89127        -0.014548     -0.057859      0.047842
Pd      5.86910     10.47262      9.83216        -0.029901      0.023950     -0.003816
Pd      7.53409      7.03801     13.25664        -0.008309     -0.037635      0.002524
Ir     11.51204      9.67764     13.11271        -0.033826      0.022525     -0.015341
Ir     13.37687      9.18407     11.50684         0.090756      0.049682     -0.020127
Ir      9.21406      8.82344     14.01390         0.033486      0.033095     -0.049934
Ir     10.37946     10.77509     15.15482        -0.004964     -0.063313      0.005389
Ir      7.27228     12.00359     11.44251         0.008317     -0.042391      0.060619
Ir     14.59636     11.07708     10.42001        -0.112346     -0.025136      0.010619
Ir     12.27483     10.52518      9.51600         0.056673      0.014314     -0.064969
Ir      8.91715     11.08500     12.99032        -0.041139     -0.070896     -0.085959
Ir     10.09272      9.99732     10.98519        -0.076173     -0.018461      0.038230
Ir     13.48556     11.39860     12.74190        -0.020921      0.017199     -0.081896
Ir     11.21592     12.21986     13.19042         0.097594     -0.027547     -0.013362
Ir      8.37973     11.24173      9.32827        -0.074997      0.016730      0.062972
Ir     11.55065      8.02792     10.03759        -0.016937     -0.051535     -0.052217
Ir      7.14066     13.14608      8.56239        -0.009021      0.052475      0.006578
Ir      9.48013      6.97852      9.24349        -0.026252      0.019096      0.002911
Ir      7.99567      8.83893     10.00634         0.044401      0.004679     -0.069758
Ir     10.71964     12.13047      8.53904         0.000999     -0.018237      0.010928
Ir      9.51774      7.68651     11.73816        -0.006507      0.043234     -0.018463
Ir     13.85293      8.58351      9.05277        -0.035961     -0.010305      0.004026
