152
# total energy = -1024.45419305 eVH     10.35389      5.87395      7.64558         0.489852      0.024755      0.759332
H     10.62451     15.10445      7.64558         0.066189     -0.201139      0.619641
H     10.62451      5.87395     13.33282         0.105630      0.147949     -0.590683
H     10.35389     15.10445     13.33282        -0.513635     -0.024052     -0.755799
H      7.64558     10.35389      5.87395         0.349993      0.025886      0.163538
H      7.64558     10.62451     15.10445         0.971108     -0.238293      0.062489
H     13.33282     10.62451      5.87395        -0.801217     -0.131205      0.153448
H     13.33282     10.35389     15.10445        -0.907524     -0.457238      0.217387
H      5.87395      7.64558     10.35389         0.158725      0.730394     -0.305422
H     15.10445      7.64558     10.62451        -0.142324      0.380356     -0.014744
H      5.87395     13.33282     10.62451         0.155275     -0.502406     -0.100741
H     15.10445     13.33282     10.35389        -0.091244     -1.171426      0.113102
H      5.87395     10.35389      7.64558         0.137622      0.163038      0.500301
H     15.10445     10.62451      7.64558         0.004887      0.114012      1.019826
H      5.87395     10.62451     13.33282         0.066906     -0.039492     -0.473352
H     15.10445     10.35389     13.33282        -0.193590     -0.131485     -0.415063
H     10.35389      7.64558      5.87395         0.074033      0.991735      0.223141
H     10.62451      7.64558     15.10445         0.002087      0.271028     -0.155795
H     10.62451     13.33282      5.87395        -0.084922     -0.394851      0.318314
H     10.35389     13.33282     15.10445        -0.434023     -0.565973      0.005489
H      7.64558      5.87395     10.35389         0.548568      0.081662     -0.114413
H      7.64558     15.10445     10.62451         0.960916     -0.199616     -0.210365
H     13.33282      5.87395     10.62451        -0.589149      0.087478     -0.069306
H     13.33282     15.10445     10.35389        -0.577188     -0.066745      0.267099
H     12.45634     12.45634     19.01126         0.238025      0.276741     -0.237163
H     19.01126     19.01126     19.01126        -0.248051     -0.249681     -0.242571
H     19.01126     12.45634     12.45634        -0.267175      0.264852      0.219196
H     12.45634     19.01126     12.45634         0.236691     -0.266711      0.241016
C     10.35284      5.61067      6.59456        -0.212899     -0.678197      0.079238
C     10.62556     15.36773      6.59456        -0.050501      0.378642     -0.837298
C     10.62556      5.61067     14.38384        -0.007200     -0.059457      0.727193
C     10.35284     15.36773     14.38384         0.206295      0.696245      0.165046
C      6.59456     10.35284      5.61067        -0.365952     -0.014884     -0.304386
C      6.59456     10.62556     15.36773        -1.116285      0.260784      0.283927
C     14.38384     10.62556      5.61067         0.441228      0.371769     -0.674341
C     14.38384     10.35284     15.36773         1.121636      0.049996      0.206583
C      5.61067      6.59456     10.35284        -0.439079     -0.375752      0.356781
C     15.36773      6.59456     10.62556         0.189545     -0.496487      0.009578
C      5.61067     14.38384     10.62556        -0.207142      0.541901     -0.010352
C     15.36773     14.38384     10.35284         0.302218      0.041733     -0.115766
C      5.61067     10.35284      6.59456        -0.333532     -0.082215     -0.989759
C     15.36773     10.62556      6.59456         0.890994     -0.341641     -0.950143
C      5.61067     10.62556     14.38384        -0.446026      0.029964      0.303786
C     15.36773     10.35284     14.38384         0.645162     -0.097804      1.041169
C     10.35284      6.59456      5.61067        -0.249333     -0.568983     -0.946868
C     10.62556      6.59456     15.36773         0.062685     -0.255885      0.049696
C     10.62556     14.38384      5.61067         0.062334      1.195294     -0.413421
C     10.35284     14.38384     15.36773         0.276085      0.179862      0.730473
C      6.59456      5.61067     10.35284        -0.196038     -0.745700      0.173057
C      6.59456     15.36773     10.62556        -1.261908      0.242443      0.183681
C     14.38384      5.61067     10.62556         1.086825     -0.299740      0.041567
C     14.38384     15.36773     10.35284        -0.452411      0.773869     -0.407694
C     10.40319      3.19606      7.29314        -0.036133      0.917120     -0.427389
C     10.35913      4.25547      6.23373         0.055535     -0.541573      0.528947
C      0.08601      7.29314      7.29314        -0.021220     -0.394393     -0.347447
C      0.13007      6.23373      6.23373        -0.024931      0.013697      0.097772
C      0.08601      3.19606      3.19606         0.009744      1.271379      0.198066
C      0.13007      4.25547      4.25547        -0.047022     -0.226583     -0.205345
C     10.40319      7.29314      3.19606        -0.013451     -1.058271      0.373021
C     10.35913      6.23373      4.25547         0.041909      0.485179     -0.663657
C      7.29314     10.40319      3.19606        -0.322959      0.028339      0.726034
C      6.23373     10.35913      4.25547         0.136863      0.057943     -0.098890
C      7.29314      0.08601      7.29314        -0.668382     -0.017571     -0.265984
C      6.23373      0.13007      6.23373         0.376886     -0.081811      0.567604
C      3.19606      0.08601      3.19606         0.994992     -0.006832      0.256641
C      4.25547      0.13007      4.25547        -0.172736     -0.037646     -0.522518
C      3.19606     10.40319      7.29314         0.356118     -0.009370     -0.925410
C      4.25547     10.35913      6.23373        -0.270830      0.091320      0.232811
C      3.19606      7.29314     10.40319         0.522266     -1.374223     -0.037234
C      4.25547      6.23373     10.35913        -0.571138      0.722086      0.101310
C      7.29314      7.29314      0.08601        -0.389048     -0.243560      0.003401
C      6.23373      6.23373      0.13007         0.157527      0.155240     -0.002174
C      3.19606      3.19606      0.08601         0.267668      0.239482     -0.016647
C      4.25547      4.25547      0.13007        -0.124888     -0.051739      0.005756
C      7.29314      3.19606     10.40319        -0.397447      0.615819      0.006835
C      6.23373      4.25547     10.35913         1.056751     -0.149676      0.050596
O     10.43466      3.58206      8.50569        -0.023359      0.034200      0.437748
O     10.54374     17.39634      8.50569        -0.005735     -0.115954      0.468769
O     10.54374      3.58206     12.47271         0.041264     -0.105982     -0.131727
O     10.43466     17.39634     12.47271        -0.058456     -0.041962     -0.475490
O      8.50569     10.43466      3.58206         0.291655     -0.027819     -0.040187
O      8.50569     10.54374     17.39634         0.721495      0.028850     -0.206524
O     12.47271     10.54374      3.58206        -0.779248     -0.037894      0.148264
O     12.47271     10.43466     17.39634        -0.283556     -0.030080      0.034697
O      3.58206      8.50569     10.43466         0.157287      1.120212     -0.030118
O     17.39634      8.50569     10.54374        -0.101875      0.445808      0.059749
O      3.58206     12.47271     10.54374         0.067346     -0.392487      0.035544
O     17.39634     12.47271     10.43466        -0.157762     -0.668585     -0.010658
O      3.58206     10.43466      8.50569         0.067522     -0.068431      0.794143
O     17.39634     10.54374      8.50569        -0.061428      0.043534      0.327995
O      3.58206     10.54374     12.47271        -0.010254      0.038087     -0.239954
O     17.39634     10.43466     12.47271        -0.254919     -0.005546     -0.718542
O     10.43466      8.50569      3.58206         0.118766      0.838235      0.191974
O     10.54374      8.50569     17.39634         0.032021      0.596722     -0.141542
O     10.54374     12.47271      3.58206         0.003588     -1.012265      0.177568
O     10.43466     12.47271     17.39634        -0.044750     -0.954327     -0.213529
O      8.50569      3.58206     10.43466         0.567044      0.131763     -0.016111
O      8.50569     17.39634     10.54374         0.501098     -0.192565     -0.010795
O     12.47271      3.58206     10.54374        -0.481712      0.163565      0.059202
O     12.47271     17.39634     10.43466        -0.401110      0.036946     -0.007948
O     11.90042     11.90042     19.56718        -0.270141     -0.324729      0.257053
O     19.56718     19.56718     19.56718         0.276775      0.293591      0.284094
O     19.56718     11.90042     11.90042         0.301305     -0.300767     -0.202846
O     11.90042     19.56718     11.90042        -0.263442      0.283939     -0.249604
O      9.45224      1.03696      9.45224        -0.081343      0.049785     -0.058845
O      1.03696      9.45224      9.45224         0.042282     -0.154606     -0.113934
O      1.03696      1.03696      1.03696         0.023719      0.121514      0.196614
O      9.45224      9.45224      1.03696        -0.069896     -0.086714      0.117366
Zr     10.48920      2.52580     10.48920        -0.050180     -0.127073     -0.166532
Zr     10.48920     18.45260     10.48920         0.007975      0.215051     -0.027709
Zr     10.48920     10.48920      2.52580        -0.160098     -0.191748     -0.513624
Zr     10.48920     10.48920     18.45260         0.013456     -0.029707      0.433155
Zr      2.52580     10.48920     10.48920        -0.369977      0.314676      0.170253
Zr     18.45260     10.48920     10.48920         0.205457      0.069746     -0.203401
Pd      8.26891      9.64989     13.27496        -0.002464      0.004698      0.005727
Pd     10.47264      9.42197     10.20221        -0.008423      0.002601      0.002253
Pd     12.96162      8.79233     12.48058        -0.001078      0.000694      0.008436
Pd     10.29087     10.83504     15.07216        -0.003431     -0.006956      0.001239
Pd     12.75247     11.37097     13.62220        -0.000382     -0.011267      0.000088
Pd     14.84822     10.54522     11.35663         0.003821      0.006081     -0.006419
Pd      6.89456      7.44466     12.30421         0.001948      0.000061     -0.004450
Pd      9.20428      7.16852      9.47589        -0.001376     -0.000757     -0.000380
Pd      9.59082      7.53348     12.22812        -0.011325     -0.000829      0.000232
Pd     11.75191      7.06177     10.80181        -0.007287     -0.001555      0.006956
Pd     11.61018      7.81543      8.26068        -0.010418     -0.002438     -0.006853
Pd      7.17165     11.65390     11.52643        -0.005923      0.006478     -0.002176
Pd      9.27054     14.30945      9.24494         0.001086     -0.000948      0.004706
Pd      8.10973     12.29446     14.01229        -0.011164      0.000626      0.003388
Pd     14.21495     14.15763      8.35934         0.004180     -0.004154     -0.002315
Pd     11.72096     13.26637      8.80268        -0.010681      0.003118      0.013152
Pd     14.09040     11.58356      9.02215         0.006203      0.000979      0.001369
Pd      8.67520     13.97771     11.98742         0.006203      0.002703      0.001978
Pd     12.22077     14.01945     13.91917         0.000304      0.005936      0.010257
Pd     11.39733     14.13411     11.28457        -0.003230     -0.009342     -0.001161
Pd     13.99493     13.22927     12.09347         0.003197      0.003569     -0.003973
Pd     12.25869     11.47317     10.93164        -0.005286     -0.000289      0.004362
Pd     12.99272     12.58292      6.60404        -0.002875     -0.001621      0.003758
Pd     13.94785      8.83822      7.58099        -0.001174      0.001204      0.000201
Pd      6.96127      8.42683      8.39401        -0.007919     -0.004040     -0.004685
Pd      5.54790     10.00351     10.07119        -0.004514     -0.001904     -0.001296
Pd      9.37642      9.44094      7.44654         0.004364     -0.003437     -0.001260
Pd      8.47515      6.94583      6.87876        -0.002868     -0.005057     -0.009285
Pd      9.66759     11.93898     10.51205        -0.003628     -0.000919      0.007986
Pd     11.76895     10.59892      8.06979        -0.003498     -0.003746      0.000147
Pd     11.78547      8.93518      5.85472        -0.001631      0.003700      0.006568
Pd     10.60050     11.33190      5.73933        -0.004069     -0.003394      0.006025
Ir     10.70790      9.86007     12.70820        -0.005204     -0.003035      0.001473
Ir     13.12519      9.21923      9.95342        -0.002920      0.001876     -0.004770
Ir     10.46037     12.31449     12.89002        -0.004530      0.000619     -0.005531
Ir      7.75651     10.93771      9.06936        -0.010769     -0.005757      0.010506
Ir      9.54729     12.04750      7.95685         0.010731      0.007203     -0.004522
Ir      7.99675      9.14716     10.74789         0.005970     -0.007365      0.007946
