152
# total energy = -1022.89214014 eVH     10.35389      5.87395      7.64558         0.479569      0.032304      0.891074
H     10.62451     15.10445      7.64558        -0.055562      0.035009      0.778161
H     10.62451      5.87395     13.33282         0.147068      0.116808     -0.611572
H     10.35389     15.10445     13.33282        -0.260143     -0.079742     -0.564576
H      7.64558     10.35389      5.87395         0.331400     -0.033818      0.190609
H      7.64558     10.62451     15.10445         0.616597     -0.192813     -0.139540
H     13.33282     10.62451      5.87395        -0.844042     -0.307904      0.173701
H     13.33282     10.35389     15.10445        -0.452577     -0.084681     -0.067030
H      5.87395      7.64558     10.35389         0.130680      1.119198     -0.157398
H     15.10445      7.64558     10.62451        -0.169816      0.406273     -0.087383
H      5.87395     13.33282     10.62451         0.143786     -0.408885     -0.071613
H     15.10445     13.33282     10.35389        -0.080581     -0.972664     -0.173900
H      5.87395     10.35389      7.64558         0.131006      0.043497      0.484240
H     15.10445     10.62451      7.64558         0.114261     -0.197867      0.840309
H      5.87395     10.62451     13.33282         0.263057     -0.031217     -0.395473
H     15.10445     10.35389     13.33282        -0.149829      0.013061     -0.616937
H     10.35389      7.64558      5.87395         0.064930      0.865009      0.123056
H     10.62451      7.64558     15.10445         0.025650      0.544058     -0.145393
H     10.62451     13.33282      5.87395         0.051052     -0.599273      0.189010
H     10.35389     13.33282     15.10445        -0.253848     -0.886960     -0.107342
H      7.64558      5.87395     10.35389         0.520867      0.046126     -0.127304
H      7.64558     15.10445     10.62451         0.908839     -0.216629      0.275026
H     13.33282      5.87395     10.62451        -0.439467      0.186009     -0.059182
H     13.33282     15.10445     10.35389        -0.958248     -0.106937      0.237421
H     12.45634     12.45634     19.01126         0.266203      0.257719     -0.225021
H     19.01126     19.01126     19.01126        -0.247627     -0.234799     -0.262459
H     19.01126     12.45634     12.45634        -0.240596      0.270598      0.239052
H     12.45634     19.01126     12.45634         0.212072     -0.282224      0.252313
C     10.35284      5.61067      6.59456        -0.125866     -0.438843     -0.371473
C     10.62556     15.36773      6.59456         0.026177      0.345328     -1.164466
C     10.62556      5.61067     14.38384        -0.031150     -0.216490      0.732122
C     10.35284     15.36773     14.38384         0.171153      0.779750      0.168615
C      6.59456     10.35284      5.61067        -0.410787     -0.039146     -0.178764
C      6.59456     10.62556     15.36773        -0.792114      0.151680      0.349630
C     14.38384     10.62556      5.61067         0.597917      0.287716     -0.380857
C     14.38384     10.35284     15.36773         0.728502     -0.118603      0.425325
C      5.61067      6.59456     10.35284        -0.423239     -0.743483      0.288633
C     15.36773      6.59456     10.62556         0.194095     -0.467658      0.047327
C      5.61067     14.38384     10.62556        -0.247221      0.378322     -0.026466
C     15.36773     14.38384     10.35284         0.400233      0.123323      0.154684
C      5.61067     10.35284      6.59456        -0.306734     -0.015269     -0.885036
C     15.36773     10.62556      6.59456         0.575438     -0.164489     -1.235836
C      5.61067     10.62556     14.38384        -0.450215      0.007238      0.863221
C     15.36773     10.35284     14.38384         0.519064     -0.179288      1.240995
C     10.35284      6.59456      5.61067        -0.045034     -0.895376     -0.660327
C     10.62556      6.59456     15.36773         0.042796     -0.645628      0.289764
C     10.62556     14.38384      5.61067         0.048916      1.229808     -0.677290
C     10.35284     14.38384     15.36773         0.107499      0.598582      0.654216
C      6.59456      5.61067     10.35284        -0.203065     -0.889889      0.127660
C      6.59456     15.36773     10.62556        -1.713510      0.489859      0.053168
C     14.38384      5.61067     10.62556         0.589850     -0.228107     -0.007483
C     14.38384     15.36773     10.35284         0.069683      0.568268     -0.252215
C     10.40319      3.19606      7.29314         0.015149      0.901363     -0.255397
C     10.35913      4.25547      6.23373        -0.052728     -0.377942      0.601233
C      0.08601      7.29314      7.29314        -0.008885     -0.240384     -0.472693
C      0.13007      6.23373      6.23373         0.005853      0.116177      0.210890
C      0.08601      3.19606      3.19606        -0.016217      0.645598      0.183113
C      0.13007      4.25547      4.25547        -0.090621     -0.199656     -0.171032
C     10.40319      7.29314      3.19606        -0.002238     -0.696319      0.529469
C     10.35913      6.23373      4.25547        -0.010554      0.497966     -0.420268
C      7.29314     10.40319      3.19606        -0.339079      0.023475      0.863876
C      6.23373     10.35913      4.25547         0.210064      0.013279     -0.140127
C      7.29314      0.08601      7.29314        -0.310633     -0.045758     -0.276311
C      6.23373      0.13007      6.23373         0.271487     -0.058653      0.299838
C      3.19606      0.08601      3.19606         0.453553     -0.051721      1.275073
C      4.25547      0.13007      4.25547        -0.113973     -0.030255     -0.462816
C      3.19606     10.40319      7.29314         0.706626      0.014277     -0.263909
C      4.25547     10.35913      6.23373        -0.135014      0.031736      0.103964
C      3.19606      7.29314     10.40319         0.609233     -1.272109      0.023465
C      4.25547      6.23373     10.35913        -0.707632      0.851754      0.052420
C      7.29314      7.29314      0.08601        -0.660751     -0.172843     -0.021527
C      6.23373      6.23373      0.13007         0.175105      0.266137     -0.007201
C      3.19606      3.19606      0.08601         0.243162      0.252213     -0.019140
C      4.25547      4.25547      0.13007        -0.055331     -0.036583      0.010357
C      7.29314      3.19606     10.40319        -0.372293      0.808735      0.013637
C      6.23373      4.25547     10.35913         0.894895     -0.152628      0.006924
O     10.43466      3.58206      8.50569        -0.049061      0.033952      0.323541
O     10.54374     17.39634      8.50569        -0.025670     -0.181113      0.601777
O     10.54374      3.58206     12.47271         0.054536      0.061895     -0.323199
O     10.43466     17.39634     12.47271        -0.022842     -0.125239     -0.584407
O      8.50569     10.43466      3.58206         0.378269     -0.025324     -0.015395
O      8.50569     10.54374     17.39634         0.471955      0.052587     -0.142981
O     12.47271     10.54374      3.58206        -0.298992      0.045519     -0.068828
O     12.47271     10.43466     17.39634        -0.855649      0.019987     -0.227356
O      3.58206      8.50569     10.43466         0.045363      0.930877      0.037688
O     17.39634      8.50569     10.54374        -0.038548      0.337463      0.077958
O      3.58206     12.47271     10.54374         0.063277     -0.422129      0.064363
O     17.39634     12.47271     10.43466        -0.170895     -0.786748      0.022079
O      3.58206     10.43466      8.50569        -0.057050     -0.067345      0.223502
O     17.39634     10.54374      8.50569        -0.136318      0.042668      0.461949
O      3.58206     10.54374     12.47271        -0.009736     -0.050620     -0.884673
O     17.39634     10.43466     12.47271        -0.198342      0.043895     -0.768437
O     10.43466      8.50569      3.58206         0.046247      0.682236      0.190139
O     10.54374      8.50569     17.39634         0.054365      0.436846     -0.080308
O     10.54374     12.47271      3.58206        -0.006944     -0.732243      0.225822
O     10.43466     12.47271     17.39634         0.048236     -0.852615     -0.274521
O      8.50569      3.58206     10.43466         0.489518      0.072014     -0.037849
O      8.50569     17.39634     10.54374         0.658035     -0.255006     -0.062350
O     12.47271      3.58206     10.54374        -0.483922      0.163403      0.039506
O     12.47271     17.39634     10.43466        -0.529361     -0.035467     -0.028371
O     11.90042     11.90042     19.56718        -0.304010     -0.312322      0.263724
O     19.56718     19.56718     19.56718         0.286734      0.271153      0.320644
O     19.56718     11.90042     11.90042         0.278650     -0.330658     -0.244309
O     11.90042     19.56718     11.90042        -0.231556      0.289821     -0.241473
O      9.45224      1.03696      9.45224        -0.074995      0.046942     -0.067068
O      1.03696      9.45224      9.45224         0.051438     -0.147478     -0.060139
O      1.03696      1.03696      1.03696         0.039979      0.035173      0.188565
O      9.45224      9.45224      1.03696        -0.041318     -0.093044      0.121856
Zr     10.48920      2.52580     10.48920        -0.007780     -0.074068     -0.024934
Zr     10.48920     18.45260     10.48920         0.065900      0.310689     -0.069948
Zr     10.48920     10.48920      2.52580        -0.096360      0.014055     -0.376247
Zr     10.48920     10.48920     18.45260        -0.136420     -0.149550      0.333324
Zr      2.52580     10.48920     10.48920        -0.353711      0.312983     -0.453136
Zr     18.45260     10.48920     10.48920         0.245550      0.036292     -0.266238
Pd      9.03472     10.24978     13.33161        -0.024460     -0.024920      0.017366
Pd     10.58112      9.71858     10.96202         0.000276      0.000533     -0.077426
Pd     13.76621      8.54056     12.68058         0.008065      0.004881     -0.014061
Pd     11.00139     11.06434     15.01559        -0.004102     -0.017710      0.007207
Pd     12.86066     11.17817     13.01267         0.063661      0.002990      0.044665
Pd     14.98837     10.94472     11.34018         0.018681      0.016279     -0.008677
Pd      6.65071      7.45334     12.34111        -0.008704      0.013521      0.009745
Pd      9.23152      7.27258     10.10464         0.010706      0.000629     -0.046091
Pd      9.27091      7.59785     12.78402         0.010241     -0.009715     -0.015016
Pd     11.70012      7.28733     11.45847         0.003019      0.007564     -0.017533
Pd     11.41921      7.99149      8.85493         0.038909      0.021920     -0.016504
Pd      7.26617     11.83309     11.94744        -0.003584     -0.002283     -0.026668
Pd      8.92412     14.68288      9.34375         0.049813      0.002615      0.014727
Pd      8.41701     12.64863     14.31728        -0.024621     -0.002726      0.030652
Pd     13.58922     14.11413      8.52448         0.076276      0.005965     -0.050299
Pd     11.03374     13.36494      8.54520         0.102212      0.042292      0.029404
Pd     14.09595     11.54113      8.92426        -0.020985      0.036753     -0.018633
Pd      8.62762     14.10157     12.10122        -0.001207      0.009419     -0.005448
Pd     12.24115     13.72409     14.02597        -0.008454      0.004090      0.015499
Pd     11.17499     14.42507     11.18176         0.028694      0.016178      0.047400
Pd     14.05335     13.55650     12.17134        -0.002678      0.014841     -0.003346
Pd     12.31055     12.14116     10.67652         0.013817     -0.029147     -0.005578
Pd     12.68040     12.35397      6.70232         0.002562      0.040324      0.022971
Pd     13.68401      8.94394      7.92813         0.022014      0.010299      0.005169
Pd      6.86737      8.46600      8.85022         0.027168      0.034215     -0.008277
Pd      5.52900      9.95198     11.23557         0.019267      0.035601     -0.069880
Pd      9.16745      9.72799      8.30109         0.020688     -0.013056     -0.018907
Pd      8.80369      7.23039      7.44235        -0.024202     -0.018817     -0.025895
Pd      9.54008     12.08539     10.42209         0.017982      0.010287     -0.021045
Pd     11.54883     10.71886      8.55448         0.014735     -0.002340     -0.057512
Pd     11.27550      9.22374      6.43044         0.030873     -0.005427      0.016018
Pd      9.92665     11.53634      6.37886         0.022009     -0.045187     -0.004727
Ir     11.35089      9.11139     13.33854        -0.004982     -0.029817      0.005507
Ir     13.08089      9.49649     10.39082         0.007299     -0.027668     -0.022522
Ir     10.53028     12.34458     12.71521        -0.013024     -0.017628      0.005048
Ir      7.17885     10.98843      9.48772         0.060318     -0.002255     -0.024071
Ir      8.44904     12.47483      8.17537         0.051882     -0.012691      0.031313
Ir      8.06902      9.30025     11.11455        -0.015003      0.025988     -0.019681
