152
# total energy = -1060.06864233 eVH     10.35389      5.87395      7.64558        -0.278777      0.034790      1.130278
H     10.62451     15.10445      7.64558         0.068963     -0.087365      0.933264
H     10.62451      5.87395     13.33282        -0.255830      0.076592     -0.788641
H     10.35389     15.10445     13.33282         0.095526     -0.302450     -0.875639
H      7.64558     10.35389      5.87395         0.933063     -0.132419      0.185551
H      7.64558     10.62451     15.10445         0.332329     -0.039285     -0.072984
H     13.33282     10.62451      5.87395        -0.861483      0.195540      0.205666
H     13.33282     10.35389     15.10445        -0.277479     -0.013465     -0.069005
H      5.87395      7.64558     10.35389         0.087750      0.416489     -0.010887
H     15.10445      7.64558     10.62451         0.001769      0.493506     -0.035734
H      5.87395     13.33282     10.62451        -0.017280     -0.962667      0.079950
H     15.10445     13.33282     10.35389        -0.080225     -0.320113      0.003210
H      5.87395     10.35389      7.64558         0.281920      0.113500      0.406835
H     15.10445     10.62451      7.64558        -0.124099     -0.173441      0.664323
H      5.87395     10.62451     13.33282        -0.084105      0.461552     -0.615420
H     15.10445     10.35389     13.33282         0.243087     -0.624210     -0.826817
H     10.35389      7.64558      5.87395        -0.041947      0.485558      0.335495
H     10.62451      7.64558     15.10445         0.258247      0.781675     -0.028694
H     10.62451     13.33282      5.87395         0.128728     -0.574561      0.208045
H     10.35389     13.33282     15.10445         0.037649     -0.285732     -0.143990
H      7.64558      5.87395     10.35389         0.344236      0.098907      0.029328
H      7.64558     15.10445     10.62451         0.378226     -0.118104      0.165811
H     13.33282      5.87395     10.62451        -0.314903      0.130191     -0.029739
H     13.33282     15.10445     10.35389        -0.655464     -0.125085      0.146322
H     12.45634     12.45634     19.01126         0.255580      0.271135     -0.228874
H     19.01126     19.01126     19.01126        -0.245940     -0.268320     -0.245762
H     19.01126     12.45634     12.45634        -0.251039      0.269744      0.235447
H     12.45634     19.01126     12.45634         0.290442     -0.235808      0.234524
C     10.35284      5.61067      6.59456         0.399067     -0.418067     -1.429535
C     10.62556     15.36773      6.59456        -0.151388      0.588861     -0.644519
C     10.62556      5.61067     14.38384         0.383903     -0.341558      0.831166
C     10.35284     15.36773     14.38384        -0.226875      0.221465      1.088129
C      6.59456     10.35284      5.61067        -1.379898      0.022242     -0.233849
C      6.59456     10.62556     15.36773        -0.651328      0.062627      0.370650
C     14.38384     10.62556      5.61067         1.303849     -0.167512     -0.630627
C     14.38384     10.35284     15.36773         0.358871     -0.122974      0.354987
C      5.61067      6.59456     10.35284        -0.288384     -0.651386     -0.020772
C     15.36773      6.59456     10.62556         0.419775     -0.967811      0.036660
C      5.61067     14.38384     10.62556        -0.134578      1.167261     -0.185032
C     15.36773     14.38384     10.35284         0.470897      0.652677     -0.026187
C      5.61067     10.35284      6.59456        -0.373659     -0.099556     -0.733100
C     15.36773     10.62556      6.59456         0.409690      0.117775     -0.740585
C      5.61067     10.62556     14.38384        -0.389393     -0.173053      1.230288
C     15.36773     10.35284     14.38384         0.272500      0.190817      1.468738
C     10.35284      6.59456      5.61067        -0.053469     -0.726125     -0.601999
C     10.62556      6.59456     15.36773        -0.110575     -0.888229      0.350102
C     10.62556     14.38384      5.61067        -0.471948      0.403885     -0.712103
C     10.35284     14.38384     15.36773        -0.157716      0.617402      0.423119
C      6.59456      5.61067     10.35284        -0.514215     -0.335231      0.025335
C      6.59456     15.36773     10.62556        -0.377575      0.452476      0.057019
C     14.38384      5.61067     10.62556         0.446804     -0.371268      0.001603
C     14.38384     15.36773     10.35284         1.122286      0.502386     -0.070689
C     10.40319      3.19606      7.29314        -0.001014      0.671329     -0.334401
C     10.35913      4.25547      6.23373         0.010240     -0.426309      0.287677
C      0.08601      7.29314      7.29314        -0.014152     -0.362636     -0.506178
C      0.13007      6.23373      6.23373        -0.069648      0.859012      0.065712
C      0.08601      3.19606      3.19606        -0.003058      0.682387      0.267647
C      0.13007      4.25547      4.25547         0.030617     -0.268938     -0.543904
C     10.40319      7.29314      3.19606        -0.067402     -1.154602      0.575187
C     10.35913      6.23373      4.25547        -0.037988      0.364651     -0.198498
C      7.29314     10.40319      3.19606        -1.083469     -0.057021      0.190857
C      6.23373     10.35913      4.25547         0.365247      0.085231     -0.537962
C      7.29314      0.08601      7.29314        -0.423766      0.034083     -0.533099
C      6.23373      0.13007      6.23373         0.182837      0.129668      0.129426
C      3.19606      0.08601      3.19606         0.693949      0.025107      0.165969
C      4.25547      0.13007      4.25547        -0.171536     -0.050160     -0.356651
C      3.19606     10.40319      7.29314         0.380016     -0.025417     -0.890564
C      4.25547     10.35913      6.23373        -0.154314     -0.078960      0.099012
C      3.19606      7.29314     10.40319         0.603207     -0.396504      0.002619
C      4.25547      6.23373     10.35913        -0.113522      0.183448      0.001258
C      7.29314      7.29314      0.08601        -0.410692     -0.317993     -0.015222
C      6.23373      6.23373      0.13007         0.182835      0.189881     -0.062349
C      3.19606      3.19606      0.08601         0.288930      0.478633     -0.024331
C      4.25547      4.25547      0.13007        -0.403564     -0.229793     -0.035134
C      7.29314      3.19606     10.40319        -0.277677      0.591160     -0.011330
C      6.23373      4.25547     10.35913         0.005418     -0.111371      0.020543
O     10.43466      3.58206      8.50569        -0.027716      0.096048      0.322677
O     10.54374     17.39634      8.50569         0.063130     -0.131041      0.597102
O     10.54374      3.58206     12.47271         0.027639      0.106190     -0.392806
O     10.43466     17.39634     12.47271         0.089915     -0.045925     -0.382739
O      8.50569     10.43466      3.58206         0.711044     -0.062271      0.013001
O      8.50569     10.54374     17.39634         0.470595      0.057095     -0.076708
O     12.47271     10.54374      3.58206        -0.648677      0.114884      0.204295
O     12.47271     10.43466     17.39634        -0.281407     -0.003876      0.020791
O      3.58206      8.50569     10.43466         0.041137      0.460758     -0.067514
O     17.39634      8.50569     10.54374        -0.059017      0.453961      0.056258
O      3.58206     12.47271     10.54374         0.114013     -0.582995      0.002109
O     17.39634     12.47271     10.43466        -0.170760     -0.739896     -0.057546
O      3.58206     10.43466      8.50569         0.213778     -0.062047      0.786958
O     17.39634     10.54374      8.50569        -0.106078      0.076415      0.569445
O      3.58206     10.54374     12.47271        -0.000355     -0.002896     -0.267828
O     17.39634     10.43466     12.47271         0.039814     -0.012741     -0.222047
O     10.43466      8.50569      3.58206        -0.104010      0.570637     -0.114381
O     10.54374      8.50569     17.39634         0.067202      0.503236     -0.089890
O     10.54374     12.47271      3.58206         0.105194     -0.627219      0.133985
O     10.43466     12.47271     17.39634        -0.061189     -0.645687     -0.250368
O      8.50569      3.58206     10.43466         0.395743      0.027087     -0.035396
O      8.50569     17.39634     10.54374         0.630745     -0.154764      0.048317
O     12.47271      3.58206     10.54374        -0.508420      0.126841      0.035580
O     12.47271     17.39634     10.43466        -0.620781     -0.133118      0.039322
O     11.90042     11.90042     19.56718        -0.274015     -0.308145      0.234081
O     19.56718     19.56718     19.56718         0.303134      0.319135      0.299950
O     19.56718     11.90042     11.90042         0.285192     -0.325178     -0.231947
O     11.90042     19.56718     11.90042        -0.316242      0.229451     -0.202347
O      9.45224      1.03696      9.45224        -0.083008      0.083678     -0.069239
O      1.03696      9.45224      9.45224         0.101542     -0.115493     -0.047502
O      1.03696      1.03696      1.03696         0.083854      0.054939      0.097959
O      9.45224      9.45224      1.03696        -0.060283     -0.131815      0.131373
Zr     10.48920      2.52580     10.48920         0.032289     -0.087374      0.077859
Zr     10.48920     18.45260     10.48920        -0.171665      0.259940     -0.347832
Zr     10.48920     10.48920      2.52580         0.119452      0.356564     -0.349491
Zr     10.48920     10.48920     18.45260        -0.081920     -0.206495      0.185756
Zr      2.52580     10.48920     10.48920        -0.254346      0.129564      0.228440
Zr     18.45260     10.48920     10.48920         0.225819     -0.114472      0.001666
Pd      9.39707     14.25676      9.36591        -0.004922      0.029634     -0.043909
Pd      8.61731     13.69856     12.98142        -0.015122     -0.027659      0.024393
Pd     12.03491     14.41844      8.73784         0.010466     -0.015356      0.000869
Pd     12.77676     12.82161     10.62087        -0.034964      0.002932      0.048033
Pd     12.14584      7.11721     12.61789        -0.009203     -0.003122      0.006336
Pd     11.21539     14.83020     11.50640        -0.019752      0.021474     -0.025614
Pd     10.08958     12.48614     11.12489        -0.056341      0.080903     -0.033741
Pd     13.48040     12.13221      7.97875         0.007993      0.004935      0.009451
Pd     11.47903     11.55720      6.11277         0.001488      0.000996      0.009854
Pd      7.85841      8.56212      7.54645         0.007009     -0.048630     -0.027056
Pd      8.73736     11.72882      6.88818         0.000669      0.015299     -0.006502
Pd     10.31175      9.46705      8.14437         0.003127      0.009919     -0.004022
Pd      8.51229     14.43318      6.84682        -0.012762      0.011309     -0.018912
Pd     12.36568      9.03126      6.58115        -0.000220      0.011669      0.010280
Pd      9.74370      9.60812      5.55311         0.001728      0.010511      0.007495
Pd      6.86384      9.45576     12.18398        -0.023758      0.003269      0.017664
Pd     12.20894      6.69006      7.87387        -0.001998      0.000145      0.009281
Pd      5.95290     10.46208      9.72551        -0.027316     -0.005948     -0.009396
Pd      7.57734      7.13801     13.26320        -0.020583      0.013248      0.063588
Ir     11.80481      9.70365     13.05729        -0.051982      0.023453      0.017247
Ir     13.58054      8.99018     11.44386         0.005975      0.038401      0.001175
Ir      9.42882      8.82447     13.88489        -0.005870      0.016447      0.055497
Ir     10.56215     10.92745     14.86436        -0.012815     -0.003494      0.054112
Ir      7.28848     12.02838     11.36824        -0.003747     -0.007579      0.000229
Ir     14.69696     10.83271     10.09016        -0.037918      0.025247      0.049930
Ir     12.19769     10.48499      9.66415         0.008473      0.029769     -0.019026
Ir      8.77325     11.03388     13.02008         0.039134     -0.016015     -0.020440
Ir     10.14309      9.85506     11.22427         0.004168      0.034300     -0.040285
Ir     13.77340     11.36522     12.40540        -0.047203     -0.009454      0.031423
Ir     11.66407     12.30122     13.11041        -0.063512     -0.009185     -0.020409
Ir      8.53299     11.07487      9.38703        -0.017092      0.022483     -0.029145
Ir     11.59710      7.97550     10.06919        -0.000590      0.020669      0.036935
Ir      7.23928     12.99911      8.69996         0.020046      0.032799     -0.010461
Ir      9.51692      7.00663      9.10811        -0.000748     -0.049819      0.012522
Ir      8.06928      8.74805     10.10263        -0.010145     -0.011437     -0.015153
Ir     10.76039     12.09547      8.54204        -0.002278      0.009608     -0.045726
Ir      9.56624      7.44294     11.66125        -0.000000      0.059496      0.047900
Ir     13.69477      8.70349      8.80142         0.012146      0.027663      0.017299
