152
# total energy = -1110.39105584 eVH     10.35389      5.87395      7.64558        -0.382129     -0.131785      1.135945
H     10.62451     15.10445      7.64558         0.331821      0.078154      0.923085
H     10.62451      5.87395     13.33282        -0.319923     -0.678935     -1.346529
H     10.35389     15.10445     13.33282        -0.590506      0.427075     -0.330226
H      7.64558     10.35389      5.87395         0.556211     -0.523159     -0.099753
H      7.64558     10.62451     15.10445         0.384080     -0.235233      0.043887
H     13.33282     10.62451      5.87395        -0.575461      0.645028     -0.046090
H     13.33282     10.35389     15.10445        -0.526044      0.390812      0.155526
H      5.87395      7.64558     10.35389         0.149409      0.553809      0.028758
H     15.10445      7.64558     10.62451         0.429596      1.014731      0.280196
H      5.87395     13.33282     10.62451        -0.221435     -0.500908      0.361738
H     15.10445     13.33282     10.35389         0.027732     -0.299895     -0.379732
H      5.87395     10.35389      7.64558        -0.100299     -0.405315      1.481168
H     15.10445     10.62451      7.64558         0.218498      0.508708      1.323259
H      5.87395     10.62451     13.33282        -0.214524     -0.368885     -1.202446
H     15.10445     10.35389     13.33282         0.609096      0.992407     -1.532693
H     10.35389      7.64558      5.87395        -0.579290      0.526034     -0.174599
H     10.62451      7.64558     15.10445        -0.135284      0.457221      0.161207
H     10.62451     13.33282      5.87395         0.871096     -1.335830     -0.314048
H     10.35389     13.33282     15.10445         0.229747     -0.562339     -0.104209
H      7.64558      5.87395     10.35389         0.718955      0.165336     -0.170730
H      7.64558     15.10445     10.62451         1.979803      0.754142      0.219687
H     13.33282      5.87395     10.62451        -2.661921     -0.914564     -0.504989
H     13.33282     15.10445     10.35389        -0.877913     -0.055561     -0.252376
H     12.45634     12.45634     19.01126         0.272002      0.257895     -0.227350
H     19.01126     19.01126     19.01126        -0.266770     -0.254845     -0.238674
H     19.01126     12.45634     12.45634        -0.283902      0.281639      0.185085
H     12.45634     19.01126     12.45634         0.256402     -0.250730      0.235778
C     10.35284      5.61067      6.59456         0.076283     -0.488796     -1.208503
C     10.62556     15.36773      6.59456         0.189253      0.754901     -0.812962
C     10.62556      5.61067     14.38384         0.182614     -0.297806      1.787931
C     10.35284     15.36773     14.38384         0.087673      0.384705      1.796465
C      6.59456     10.35284      5.61067        -1.137531     -0.110114     -0.891119
C      6.59456     10.62556     15.36773        -0.701804     -0.096010      0.790819
C     14.38384     10.62556      5.61067         0.842931     -0.110984     -0.993170
C     14.38384     10.35284     15.36773         1.182370      0.168313      1.100262
C      5.61067      6.59456     10.35284        -0.668390     -0.896318     -0.187299
C     15.36773      6.59456     10.62556         2.002439     -0.312512     -0.187164
C      5.61067     14.38384     10.62556        -1.568449     -0.011855     -0.141054
C     15.36773     14.38384     10.35284         0.485116      0.087615      0.002043
C      5.61067     10.35284      6.59456        -0.275317      0.209229     -1.351834
C     15.36773     10.62556      6.59456         0.293393     -0.261137     -0.983844
C      5.61067     10.62556     14.38384        -0.255260      0.443909      1.457641
C     15.36773     10.35284     14.38384         0.012005     -0.480243      1.943661
C     10.35284      6.59456      5.61067        -0.162829     -0.853754     -0.695910
C     10.62556      6.59456     15.36773        -0.117363     -0.721654      1.046854
C     10.62556     14.38384      5.61067        -0.502697      1.991310     -0.757849
C     10.35284     14.38384     15.36773        -0.262338      1.367526      0.500029
C      6.59456      5.61067     10.35284        -0.985305     -0.410321      0.092917
C      6.59456     15.36773     10.62556        -1.262392      0.370422     -0.332838
C     14.38384      5.61067     10.62556         1.273860     -1.296820      0.210401
C     14.38384     15.36773     10.35284         0.456867      0.311565      0.084390
C     10.40319      3.19606      7.29314         0.001222      0.305246     -0.109763
C     10.35913      4.25547      6.23373         0.141783     -0.569274      0.015829
C      0.08601      7.29314      7.29314        -0.053324     -0.282530     -0.420792
C      0.13007      6.23373      6.23373        -0.122816      0.675118      0.019094
C      0.08601      3.19606      3.19606        -0.105918      1.658789      0.166671
C      0.13007      4.25547      4.25547        -0.094600     -0.393875     -1.211355
C     10.40319      7.29314      3.19606         0.015799     -0.446479      0.122232
C     10.35913      6.23373      4.25547         0.263594      0.085856     -0.531365
C      7.29314     10.40319      3.19606        -1.693258      0.010490      0.324280
C      6.23373     10.35913      4.25547         0.667739      0.080717     -0.621327
C      7.29314      0.08601      7.29314        -0.409888     -0.014900     -0.315649
C      6.23373      0.13007      6.23373         0.720146     -0.057869      0.248519
C      3.19606      0.08601      3.19606         0.660404     -0.018077      0.180457
C      4.25547      0.13007      4.25547        -0.359540     -0.084242     -0.564761
C      3.19606     10.40319      7.29314         0.353015      0.022841     -0.318968
C      4.25547     10.35913      6.23373        -0.738842      0.076577      0.363585
C      3.19606      7.29314     10.40319         0.286338     -0.203809     -0.006506
C      4.25547      6.23373     10.35913         0.042596      0.634959      0.091640
C      7.29314      7.29314      0.08601        -0.716764     -0.610433     -0.026390
C      6.23373      6.23373      0.13007         0.900248      1.124779     -0.066590
C      3.19606      3.19606      0.08601         0.822907      0.513509      0.002535
C      4.25547      4.25547      0.13007        -0.328200     -1.764060     -0.129285
C      7.29314      3.19606     10.40319        -0.325666      0.271432     -0.004374
C      6.23373      4.25547     10.35913         0.507442     -0.022071      0.230494
O     10.43466      3.58206      8.50569        -0.048552      0.186319      0.259353
O     10.54374     17.39634      8.50569         0.042248     -0.236006      0.486233
O     10.54374      3.58206     12.47271         0.083868     -0.073903     -0.024491
O     10.43466     17.39634     12.47271        -0.023113     -0.141746     -0.269977
O      8.50569     10.43466      3.58206         0.992221      0.189141      0.378302
O      8.50569     10.54374     17.39634         0.578689      0.084461     -0.229606
O     12.47271     10.54374      3.58206        -0.414616     -0.040684      0.182622
O     12.47271     10.43466     17.39634        -0.508017     -0.067949     -0.193571
O      3.58206      8.50569     10.43466         0.184289      0.424471     -0.028963
O     17.39634      8.50569     10.54374        -0.230630      0.713357      0.045938
O      3.58206     12.47271     10.54374         0.162170     -0.681668      0.026087
O     17.39634     12.47271     10.43466        -0.186461     -0.475481     -0.010616
O      3.58206     10.43466      8.50569         0.230086     -0.061436      0.405389
O     17.39634     10.54374      8.50569        -0.171759      0.037309      0.412095
O      3.58206     10.54374     12.47271         0.148176      0.021434     -0.303828
O     17.39634     10.43466     12.47271         0.080153     -0.051504     -0.071810
O     10.43466      8.50569      3.58206         0.004231      0.273251      0.183179
O     10.54374      8.50569     17.39634         0.069786      0.427911     -0.175110
O     10.54374     12.47271      3.58206        -0.222050     -0.974416      0.331905
O     10.43466     12.47271     17.39634        -0.082441     -0.450523     -0.245219
O      8.50569      3.58206     10.43466         0.489887      0.197291     -0.010248
O      8.50569     17.39634     10.54374         0.665142     -0.202903      0.022138
O     12.47271      3.58206     10.54374        -0.746614      0.280159      0.037812
O     12.47271     17.39634     10.43466        -0.432952     -0.205527     -0.043795
O     11.90042     11.90042     19.56718        -0.347084     -0.307349      0.260699
O     19.56718     19.56718     19.56718         0.324332      0.311721      0.283886
O     19.56718     11.90042     11.90042         0.274875     -0.274040     -0.138508
O     11.90042     19.56718     11.90042        -0.305324      0.283490     -0.233241
O      9.45224      1.03696      9.45224        -0.060971      0.073032     -0.045487
O      1.03696      9.45224      9.45224         0.035842     -0.075373     -0.070375
O      1.03696      1.03696      1.03696         0.063118      0.149002      0.096210
O      9.45224      9.45224      1.03696        -0.142340     -0.097723      0.096518
Zr     10.48920      2.52580     10.48920         0.163049     -0.172590     -0.167325
Zr     10.48920     18.45260     10.48920        -0.101208      0.186564     -0.050373
Zr     10.48920     10.48920      2.52580         0.342634     -0.310384     -0.204111
Zr     10.48920     10.48920     18.45260         0.014012     -0.088370      0.200768
Zr      2.52580     10.48920     10.48920        -0.071437      0.179016     -0.052397
Zr     18.45260     10.48920     10.48920         0.146206     -0.132162     -0.252233
Ir     12.03910     12.48414     10.45447        -0.016104      0.006296      0.017440
Ir     11.21606      7.41360     10.24948         0.008357     -0.000622     -0.020587
Ir      8.85557      7.35085     11.52756         0.006468     -0.004470     -0.014233
Ir      7.46421     11.64802      7.65755        -0.009004     -0.000171      0.001086
Ir     11.59540     12.07408      7.11319         0.000245     -0.004938     -0.003061
Ir     13.78322      8.99303      7.52539         0.004010     -0.000160     -0.008729
Ir     12.47213     13.95294      8.40785        -0.004655     -0.000446     -0.004547
Ir      9.73860     11.25498      5.54137         0.003348      0.001646     -0.008701
Ir      9.07450     13.44491      7.07650        -0.000560     -0.008846      0.002614
Ir      9.26784      9.67172      7.50114        -0.009712     -0.001174     -0.004934
Ir     13.28624      7.03704     11.95833         0.004353     -0.010090     -0.000255
Ir     13.63400      7.04147      9.10844         0.015063      0.005415     -0.006000
Ir     11.04545      7.59148     12.80371        -0.006255     -0.002491     -0.012456
Ir     13.59879     11.56492      8.75149         0.002380     -0.002579     -0.007477
Ir     11.50282      9.62443      6.22024         0.001406     -0.010914     -0.005496
Ir      7.16038      9.14788      8.92060         0.006128     -0.007395     -0.005023
Ir     14.05943     11.43932     11.64757         0.003583      0.005746     -0.001475
Ir     11.66083      9.82926      8.86264         0.002566     -0.014457     -0.010982
Ir      9.44325      9.50067     10.22646         0.001085     -0.012897     -0.007251
Ir     13.87878      9.41263     10.16862         0.005841     -0.002369     -0.009584
Ir     13.83525      9.16330     12.88167         0.011141      0.003210     -0.006313
Ir     11.70192      9.75870     11.54044         0.002356      0.001606     -0.009865
Ir      9.91608     11.72933      8.96264         0.003997      0.005718     -0.002512
Ir      9.10704      7.43317      8.77383         0.012554      0.006326     -0.015763
Ir     11.63106      7.52717      7.72583         0.026573     -0.016267     -0.016566
Ir      9.25636      9.46819     13.00376        -0.000567     -0.013956     -0.002609
Ir      7.50620     13.89953      8.99411        -0.001154     -0.003657      0.001192
Ir     10.86414     14.10085     11.95139        -0.000994     -0.022668     -0.008600
Ir     10.11034     14.14638      9.51520         0.001846     -0.012804      0.002888
Ir      9.79041     11.67884     11.72319         0.012988      0.005497     -0.005018
Ir      7.59019     11.56174     10.20667        -0.001151     -0.002263     -0.007518
Ir      8.34406     13.73419     11.58199        -0.000549     -0.005688     -0.001561
Ir      7.52555     11.54282     12.82165        -0.007011     -0.008198      0.002648
Ir      9.77739     11.59242     14.34218         0.004202     -0.008009      0.001924
Ir     13.46554     13.88445     12.18637        -0.007752     -0.004821     -0.002757
Ir     11.98909     12.04387     13.07737         0.001723      0.000721     -0.011588
Ir     11.58531      9.78208     14.17966         0.003842     -0.013666     -0.007906
Ir      7.15752      9.34722     11.48006         0.001382     -0.011229     -0.007230
