152
# total energy = -1109.49472076 eVH     10.35389      5.87395      7.64558        -0.345276     -0.949917      1.530026
H     10.62451     15.10445      7.64558         0.277059      0.058368      0.871764
H     10.62451      5.87395     13.33282        -0.087162     -1.342997     -1.741042
H     10.35389     15.10445     13.33282        -0.635397      0.600374     -0.488126
H      7.64558     10.35389      5.87395         0.497131     -0.492260      0.026784
H      7.64558     10.62451     15.10445         0.357984     -0.287054      0.067044
H     13.33282     10.62451      5.87395        -0.402594      0.407099     -0.011737
H     13.33282     10.35389     15.10445        -0.466308      0.258834      0.121664
H      5.87395      7.64558     10.35389        -0.002784      0.307663      0.064563
H     15.10445      7.64558     10.62451         0.248164      0.379864      0.003744
H      5.87395     13.33282     10.62451        -0.316547     -0.423376      0.428908
H     15.10445     13.33282     10.35389         0.057120     -0.313041     -0.417624
H      5.87395     10.35389      7.64558        -0.180741     -0.423926      1.692271
H     15.10445     10.62451      7.64558         0.132050      0.230640      0.887295
H      5.87395     10.62451     13.33282        -0.112985     -0.271332     -1.155167
H     15.10445     10.35389     13.33282         0.438990      0.577996     -1.267594
H     10.35389      7.64558      5.87395        -0.341167      0.747214     -0.455682
H     10.62451      7.64558     15.10445        -0.025356      0.728153      0.306744
H     10.62451     13.33282      5.87395         0.814211     -1.225435     -0.295035
H     10.35389     13.33282     15.10445         0.266156     -0.480491      0.016871
H      7.64558      5.87395     10.35389         0.997685      0.047039     -0.089280
H      7.64558     15.10445     10.62451         2.129347      0.739870      0.299548
H     13.33282      5.87395     10.62451        -2.142879     -0.626025     -0.168208
H     13.33282     15.10445     10.35389        -0.833695     -0.068594     -0.267349
H     12.45634     12.45634     19.01126         0.267917      0.260680     -0.231723
H     19.01126     19.01126     19.01126        -0.267095     -0.249602     -0.240851
H     19.01126     12.45634     12.45634        -0.277657      0.293133      0.183967
H     12.45634     19.01126     12.45634         0.257539     -0.251639      0.237438
C     10.35284      5.61067      6.59456         0.052422     -0.269445     -2.062564
C     10.62556     15.36773      6.59456         0.206726      0.536847     -0.835029
C     10.62556      5.61067     14.38384         0.019419     -0.122292      2.160078
C     10.35284     15.36773     14.38384         0.151819      0.003051      1.937532
C      6.59456     10.35284      5.61067        -1.161171     -0.201426     -0.993771
C      6.59456     10.62556     15.36773        -0.605430     -0.135019      0.730999
C     14.38384     10.62556      5.61067         0.589030     -0.145304     -0.724109
C     14.38384     10.35284     15.36773         1.116255      0.135982      0.939697
C      5.61067      6.59456     10.35284        -0.992988     -0.627370     -0.073639
C     15.36773      6.59456     10.62556         1.788277     -0.186668      0.027178
C      5.61067     14.38384     10.62556        -1.414812      0.205492     -0.010178
C     15.36773     14.38384     10.35284         0.542868      0.290283     -0.037336
C      5.61067     10.35284      6.59456        -0.284534      0.429765     -1.916406
C     15.36773     10.62556      6.59456         0.313262      0.013045     -0.731107
C      5.61067     10.62556     14.38384        -0.473024      0.241077      1.570540
C     15.36773     10.35284     14.38384         0.140648     -0.403261      1.786020
C     10.35284      6.59456      5.61067        -0.151629     -1.596715     -1.173869
C     10.62556      6.59456     15.36773        -0.052342     -1.144118      1.260942
C     10.62556     14.38384      5.61067        -0.498879      2.010513     -0.624002
C     10.35284     14.38384     15.36773        -0.195009      1.636838      0.271203
C      6.59456      5.61067     10.35284        -1.037079     -0.297637      0.055365
C      6.59456     15.36773     10.62556        -1.580105      0.270544     -0.335932
C     14.38384      5.61067     10.62556         1.254528     -0.145575     -0.221722
C     14.38384     15.36773     10.35284         0.343165      0.187418      0.096634
C     10.40319      3.19606      7.29314         0.013801      0.316637     -0.146301
C     10.35913      4.25547      6.23373         0.041511     -0.364414      0.441219
C      0.08601      7.29314      7.29314        -0.048469     -0.373967     -0.432704
C      0.13007      6.23373      6.23373        -0.131204      0.830064      0.055179
C      0.08601      3.19606      3.19606        -0.126046      1.520149      0.172770
C      0.13007      4.25547      4.25547        -0.188800     -0.432488     -1.329427
C     10.40319      7.29314      3.19606         0.039163     -0.449355      0.091262
C     10.35913      6.23373      4.25547         0.170422      0.302009     -0.372978
C      7.29314     10.40319      3.19606        -1.771181      0.028630      0.244369
C      6.23373     10.35913      4.25547         0.507559      0.025979     -0.542251
C      7.29314      0.08601      7.29314        -0.386086      0.019706     -0.280874
C      6.23373      0.13007      6.23373         0.442026     -0.012977      0.284518
C      3.19606      0.08601      3.19606         0.584261      0.012439      0.337800
C      4.25547      0.13007      4.25547        -0.417309     -0.019282     -0.464651
C      3.19606     10.40319      7.29314         0.370870      0.056051     -0.457166
C      4.25547     10.35913      6.23373        -0.736036      0.112205      0.437616
C      3.19606      7.29314     10.40319         0.405323     -0.388096      0.003030
C      4.25547      6.23373     10.35913        -0.029069      0.668086      0.099863
C      7.29314      7.29314      0.08601        -0.634862     -0.382132     -0.026220
C      6.23373      6.23373      0.13007         0.111068      1.313515      0.087303
C      3.19606      3.19606      0.08601         0.716937      0.418125     -0.003545
C      4.25547      4.25547      0.13007        -0.652959     -1.163425     -0.091147
C      7.29314      3.19606     10.40319        -0.377319      0.365044      0.000532
C      6.23373      4.25547     10.35913         0.546884     -0.297542      0.195681
O     10.43466      3.58206      8.50569        -0.043955      0.198611      0.288675
O     10.54374     17.39634      8.50569         0.042496     -0.212787      0.470453
O     10.54374      3.58206     12.47271         0.097953     -0.020616     -0.069998
O     10.43466     17.39634     12.47271        -0.038231     -0.111261     -0.233088
O      8.50569     10.43466      3.58206         0.935937      0.195293      0.413949
O      8.50569     10.54374     17.39634         0.563394      0.069136     -0.211181
O     12.47271     10.54374      3.58206        -0.468246     -0.004326      0.182720
O     12.47271     10.43466     17.39634        -0.507668     -0.070633     -0.178805
O      3.58206      8.50569     10.43466         0.151749      0.543396     -0.045215
O     17.39634      8.50569     10.54374        -0.170110      0.619491      0.048212
O      3.58206     12.47271     10.54374         0.157259     -0.611806      0.024849
O     17.39634     12.47271     10.43466        -0.184179     -0.565052     -0.005246
O      3.58206     10.43466      8.50569         0.227235     -0.087717      0.454488
O     17.39634     10.54374      8.50569        -0.163291      0.029000      0.430624
O      3.58206     10.54374     12.47271         0.169680     -0.006077     -0.415856
O     17.39634     10.43466     12.47271         0.088961     -0.059502     -0.035592
O     10.43466      8.50569      3.58206        -0.005223      0.353006      0.188636
O     10.54374      8.50569     17.39634         0.077503      0.483673     -0.209077
O     10.54374     12.47271      3.58206        -0.230199     -0.937219      0.348565
O     10.43466     12.47271     17.39634        -0.073608     -0.448127     -0.240908
O      8.50569      3.58206     10.43466         0.508281      0.181051     -0.018865
O      8.50569     17.39634     10.54374         0.583367     -0.206964      0.031288
O     12.47271      3.58206     10.54374        -0.680256      0.266609      0.039745
O     12.47271     17.39634     10.43466        -0.506759     -0.182457     -0.041050
O     11.90042     11.90042     19.56718        -0.326493     -0.309049      0.258238
O     19.56718     19.56718     19.56718         0.329054      0.303699      0.286983
O     19.56718     11.90042     11.90042         0.269109     -0.297181     -0.130996
O     11.90042     19.56718     11.90042        -0.316314      0.297804     -0.242614
O      9.45224      1.03696      9.45224        -0.053041      0.065530     -0.041474
O      1.03696      9.45224      9.45224         0.041461     -0.064766     -0.073109
O      1.03696      1.03696      1.03696         0.052479      0.121756      0.111746
O      9.45224      9.45224      1.03696        -0.128000     -0.073249      0.128727
Zr     10.48920      2.52580     10.48920         0.094969     -0.138307     -0.153920
Zr     10.48920     18.45260     10.48920        -0.022970      0.169736     -0.028558
Zr     10.48920     10.48920      2.52580         0.469458     -0.280466     -0.239670
Zr     10.48920     10.48920     18.45260        -0.035502     -0.060592      0.202500
Zr      2.52580     10.48920     10.48920        -0.083921      0.119406     -0.002270
Zr     18.45260     10.48920     10.48920         0.137465     -0.108217     -0.315939
Ir     11.99137     12.43138     10.46247         0.111161     -0.055698     -0.126680
Ir     10.70255      7.33630     10.40619         0.132844      0.040830      0.044652
Ir      8.37927      7.47483     11.70339         0.094313      0.006773     -0.049104
Ir      7.25376     11.78567      7.73437         0.146666     -0.009485     -0.072787
Ir     11.45011     12.04093      7.14317         0.081529      0.007553      0.000974
Ir     13.46038      8.91467      7.59101        -0.228737     -0.193552      0.126432
Ir     12.40930     13.90717      8.42180         0.129286     -0.048369      0.036874
Ir      9.59637     11.26478      5.57422         0.007843      0.050822     -0.031492
Ir      9.03644     13.43109      7.10725         0.024219      0.052040     -0.025293
Ir      9.02993      9.72205      7.58955         0.081832     -0.061589      0.020206
Ir     12.94607      7.21114     11.83052         0.068683     -0.115255      0.117865
Ir     12.98453      7.02011      9.09586         0.244872     -0.235067      0.159269
Ir     10.66819      7.55813     12.92975         0.050397      0.032174     -0.023985
Ir     13.46055     11.46265      8.69345         0.044571     -0.000722      0.014919
Ir     11.31088      9.61525      6.31466         0.027860      0.073548     -0.028252
Ir      6.74445      9.46834      9.12844         0.156393     -0.117792     -0.081540
Ir     14.14410     11.47073     11.46839        -0.020689     -0.147366      0.034068
Ir     11.40827      9.80634      8.96679         0.074382      0.142186     -0.015293
Ir      9.11512      9.57955     10.31140         0.021657     -0.031446     -0.031201
Ir     13.63820      9.35620     10.17670        -0.060853     -0.080934      0.009766
Ir     13.62159      9.33563     12.81556        -0.022657     -0.103729      0.025674
Ir     11.39714      9.62542     11.59372         0.042631      0.057502      0.026886
Ir      9.79190     11.77696      9.02715        -0.027555      0.130677     -0.019828
Ir      8.41107      7.53905      8.98007         0.280939     -0.009154     -0.039545
Ir     10.75267      7.60850      7.92789         0.445824      0.085902      0.001556
Ir      9.00327      9.55603     13.06566         0.057358     -0.000443     -0.028949
Ir      7.54709     14.05444      9.00706         0.052866     -0.014454     -0.017372
Ir     10.92208     13.98170     12.07688         0.035589      0.087521     -0.059443
Ir     10.11482     14.17784      9.59333         0.095527      0.054383     -0.030093
Ir      9.71505     11.69010     11.74470        -0.027894      0.067692      0.028401
Ir      7.48823     11.76336     10.29746        -0.020665     -0.022530     -0.017449
Ir      8.40715     13.85796     11.68047        -0.000633      0.001511     -0.042800
Ir      7.49967     11.80395     12.97164         0.006232      0.019366     -0.053551
Ir      9.82595     11.64192     14.33103        -0.028853      0.003991     -0.036581
Ir     13.46530     13.84112     12.17834         0.072497     -0.033792     -0.064299
Ir     12.09858     11.83715     13.03081        -0.046116      0.084073      0.029094
Ir     11.42429      9.69122     14.24661         0.014018      0.077530     -0.006032
Ir      6.83729      9.61834     11.64357         0.097209      0.022255     -0.061654
