20
# total energy = -167.56937567 eVC      8.01917      1.36165      7.50000         0.010509      0.007111     -0.000000
C      1.41088     -0.16954      7.50000         0.001174      0.000787      0.000000
C      8.34891     -5.42726      7.50000        -0.002863      0.001053     -0.000000
C      0.87125      1.14676      7.50000        -0.010509     -0.007111      0.000000
C      7.47954      2.67795      7.50000        -0.001174     -0.000787     -0.000000
C      0.54151      7.93567      7.50000         0.002863     -0.001053      0.000000
C      7.70518     -4.17950      7.50000         0.009100      0.015248     -0.000000
C      7.17386      0.24732      7.50000         0.001939     -0.008821      0.000000
C      2.78519     -0.45420      7.50000         0.015732      0.021680     -0.000000
C      1.18524      6.68791      7.50000        -0.009100     -0.015248     -0.000000
C      1.71657      2.26109      7.50000        -0.001939      0.008821      0.000000
C      6.10523      2.96261      7.50000        -0.015732     -0.021680      0.000000
N      6.76949     -3.45927      7.50000        -0.008678     -0.001939      0.000000
N      6.46774     -0.69501      7.50000        -0.001372     -0.002451      0.000000
N      3.73133     -1.16025      7.50000         0.000721     -0.009430     -0.000000
N      2.12093      5.96768      7.50000         0.008678      0.001939      0.000000
N      2.42268      3.20341      7.50000         0.001372      0.002451     -0.000000
N      5.15909      3.66866      7.50000        -0.000721      0.009430      0.000000
Ir      5.25744     -2.29930      7.50000         0.006820     -0.001160     -0.000000
Ir      3.63298      4.80771      7.50000        -0.006820      0.001160     -0.000000
