152
# total energy = -1093.15669678 eVH     10.35389      5.87395      7.64558        -0.045170     -0.117939      1.173373
H     10.62451     15.10445      7.64558        -0.165243      0.084209      1.377752
H     10.62451      5.87395     13.33282         0.149203     -0.037266     -1.069187
H     10.35389     15.10445     13.33282         0.019300     -0.053947     -0.880448
H      7.64558     10.35389      5.87395         0.528940      0.023824     -0.100177
H      7.64558     10.62451     15.10445         0.403587     -0.002057      0.006298
H     13.33282     10.62451      5.87395        -0.669342     -0.034601      0.002252
H     13.33282     10.35389     15.10445        -0.428968     -0.013767     -0.018262
H      5.87395      7.64558     10.35389        -0.144016      1.334450      0.052271
H     15.10445      7.64558     10.62451        -0.018574      0.444477      0.030570
H      5.87395     13.33282     10.62451        -0.078035     -0.225336      0.043988
H     15.10445     13.33282     10.35389         0.185437     -1.513462      0.101331
H      5.87395     10.35389      7.64558        -0.084100     -0.774778      0.493335
H     15.10445     10.62451      7.64558         0.448635      0.801048      0.227312
H      5.87395     10.62451     13.33282        -0.002728     -0.175658     -0.267351
H     15.10445     10.35389     13.33282        -0.067455      0.230966     -0.185972
H     10.35389      7.64558      5.87395        -0.113313      0.427937      0.098556
H     10.62451      7.64558     15.10445         0.053035      0.502072      0.280870
H     10.62451     13.33282      5.87395         0.094202     -0.408279     -0.196049
H     10.35389     13.33282     15.10445        -0.137632     -0.565702      0.174219
H      7.64558      5.87395     10.35389         0.491423     -0.037152     -0.049631
H      7.64558     15.10445     10.62451         0.300958      0.029161     -0.028650
H     13.33282      5.87395     10.62451        -0.196271     -0.082691     -0.007519
H     13.33282     15.10445     10.35389        -0.500952      0.088821     -0.017794
H     12.45634     12.45634     19.01126         0.265284      0.247848     -0.244954
H     19.01126     19.01126     19.01126        -0.263137     -0.242615     -0.252117
H     19.01126     12.45634     12.45634        -0.265605      0.261726      0.232948
H     12.45634     19.01126     12.45634         0.275186     -0.255371      0.226255
C     10.35284      5.61067      6.59456        -0.144634     -0.316082     -1.783661
C     10.62556     15.36773      6.59456         0.424871      0.133477     -1.855092
C     10.62556      5.61067     14.38384        -0.347125     -0.125220      1.707858
C     10.35284     15.36773     14.38384         0.226479      0.148387      1.624155
C      6.59456     10.35284      5.61067        -0.937464     -0.120261     -0.323036
C      6.59456     10.62556     15.36773        -0.828911     -0.007682      0.119049
C     14.38384     10.62556      5.61067         1.033033      0.042303     -0.236998
C     14.38384     10.35284     15.36773         0.771971     -0.024084      0.169728
C      5.61067      6.59456     10.35284        -0.100717     -1.664638      0.067368
C     15.36773      6.59456     10.62556         0.319908     -0.909449      0.037238
C      5.61067     14.38384     10.62556        -0.422688      0.801144      0.044418
C     15.36773     14.38384     10.35284         0.060286      1.805206     -0.073707
C      5.61067     10.35284      6.59456        -0.769194      0.293733     -1.842425
C     15.36773     10.62556      6.59456         0.733691     -0.212615     -1.929885
C      5.61067     10.62556     14.38384        -0.673032      0.090472      1.611277
C     15.36773     10.35284     14.38384         0.556935     -0.060015      1.395306
C     10.35284      6.59456      5.61067         0.027068     -1.538411     -0.745704
C     10.62556      6.59456     15.36773        -0.050018     -1.911419      0.696822
C     10.62556     14.38384      5.61067         0.087857      1.830823     -0.852434
C     10.35284     14.38384     15.36773         0.036104      1.851592      0.613382
C      6.59456      5.61067     10.35284        -0.889722     -0.811632     -0.033559
C      6.59456     15.36773     10.62556        -1.025957      0.572687      0.073476
C     14.38384      5.61067     10.62556         0.952078     -0.682033      0.088977
C     14.38384     15.36773     10.35284         0.877047      0.874276     -0.003433
C     10.40319      3.19606      7.29314        -0.004950      0.529078     -0.578103
C     10.35913      4.25547      6.23373        -0.008625     -0.829598      0.537881
C      0.08601      7.29314      7.29314         0.014148     -0.463570     -0.572242
C      0.13007      6.23373      6.23373         0.059330      0.847005      0.449152
C      0.08601      3.19606      3.19606         0.027833      0.691363      0.462141
C      0.13007      4.25547      4.25547        -0.041260     -0.737232     -0.483812
C     10.40319      7.29314      3.19606        -0.017595     -0.819269      0.480564
C     10.35913      6.23373      4.25547         0.008899      0.562480     -0.510030
C      7.29314     10.40319      3.19606        -0.314630     -0.006608      0.499703
C      6.23373     10.35913      4.25547         0.188075     -0.078514     -0.148102
C      7.29314      0.08601      7.29314        -0.254273     -0.030984     -0.379516
C      6.23373      0.13007      6.23373         0.155136     -0.095609      0.371090
C      3.19606      0.08601      3.19606         0.422164      0.013682      0.483851
C      4.25547      0.13007      4.25547        -0.206231      0.069791     -0.196958
C      3.19606     10.40319      7.29314         0.220697      0.034270     -0.507330
C      4.25547     10.35913      6.23373        -0.188893      0.105655      0.341648
C      3.19606      7.29314     10.40319         0.171422     -0.318467      0.009459
C      4.25547      6.23373     10.35913        -0.570362      0.174570      0.053160
C      7.29314      7.29314      0.08601        -0.587204     -0.466730      0.003497
C      6.23373      6.23373      0.13007         0.120171      0.192801     -0.058146
C      3.19606      3.19606      0.08601         0.558511      0.462474      0.005025
C      4.25547      4.25547      0.13007        -0.067765     -0.101410     -0.036344
C      7.29314      3.19606     10.40319        -0.218599      0.335735      0.010996
C      6.23373      4.25547     10.35913         0.591680     -0.247760      0.017803
O     10.43466      3.58206      8.50569         0.016555      0.237856      0.499205
O     10.54374     17.39634      8.50569        -0.028760     -0.238879      0.515910
O     10.54374      3.58206     12.47271         0.081037      0.159629     -0.396092
O     10.43466     17.39634     12.47271        -0.101122     -0.117325     -0.354206
O      8.50569     10.43466      3.58206         0.413306     -0.021657      0.075285
O      8.50569     10.54374     17.39634         0.470460      0.059480     -0.124803
O     12.47271     10.54374      3.58206        -0.501710     -0.010024      0.093454
O     12.47271     10.43466     17.39634        -0.416334     -0.054214     -0.103102
O      3.58206      8.50569     10.43466         0.164911      0.424409     -0.055874
O     17.39634      8.50569     10.54374        -0.089079      0.563896      0.048585
O      3.58206     12.47271     10.54374         0.048317     -0.533661      0.039070
O     17.39634     12.47271     10.43466        -0.173657     -0.453793     -0.025024
O      3.58206     10.43466      8.50569         0.188451     -0.014441      0.493518
O     17.39634     10.54374      8.50569        -0.123799     -0.009455      0.458763
O      3.58206     10.54374     12.47271         0.178945      0.088969     -0.484671
O     17.39634     10.43466     12.47271        -0.191269     -0.081600     -0.527012
O     10.43466      8.50569      3.58206         0.047519      0.663576      0.270514
O     10.54374      8.50569     17.39634         0.057303      0.489940     -0.210744
O     10.54374     12.47271      3.58206        -0.019652     -0.633442      0.268059
O     10.43466     12.47271     17.39634        -0.033482     -0.526438     -0.219305
O      8.50569      3.58206     10.43466         0.517388      0.151607     -0.030786
O      8.50569     17.39634     10.54374         0.621824     -0.095431      0.045611
O     12.47271      3.58206     10.54374        -0.625892      0.102269      0.035504
O     12.47271     17.39634     10.43466        -0.484721     -0.138207     -0.017072
O     11.90042     11.90042     19.56718        -0.307186     -0.283746      0.271034
O     19.56718     19.56718     19.56718         0.315649      0.270361      0.290226
O     19.56718     11.90042     11.90042         0.324403     -0.307405     -0.235592
O     11.90042     19.56718     11.90042        -0.328598      0.281155     -0.223563
O      9.45224      1.03696      9.45224        -0.030673      0.060749     -0.065663
O      1.03696      9.45224      9.45224         0.036951     -0.079774     -0.058789
O      1.03696      1.03696      1.03696         0.034269      0.051521      0.131394
O      9.45224      9.45224      1.03696        -0.024185     -0.089195      0.134631
Zr     10.48920      2.52580     10.48920        -0.107281     -0.130421     -0.011753
Zr     10.48920     18.45260     10.48920         0.110317      0.188649     -0.101824
Zr     10.48920     10.48920      2.52580        -0.009482      0.110826     -0.320519
Zr     10.48920     10.48920     18.45260        -0.034235     -0.014765      0.145637
Zr      2.52580     10.48920     10.48920        -0.048779     -0.029794     -0.050121
Zr     18.45260     10.48920     10.48920         0.089582      0.110577     -0.143479
Pd     12.91152      8.09452      7.61127        -0.005262     -0.009989     -0.007126
Pd      9.57355     14.56839     11.75229         0.006346     -0.001951      0.009306
Pd     12.30287     10.86479     10.41836        -0.000843      0.009191     -0.008649
Pd     14.63471      9.94725     11.58470        -0.012646      0.006106     -0.000292
Pd     10.92002      9.33409      6.10688        -0.020078     -0.006113     -0.001151
Pd      6.88801      8.54800      8.97354        -0.012431      0.000981     -0.001365
Ir     10.24221     11.84077     11.75289         0.009348     -0.006880     -0.012337
Ir     12.87592      8.26041     10.29023        -0.004361     -0.004027      0.001097
Ir     12.28194     10.96953      7.71681        -0.008768      0.007760     -0.011948
Ir      9.68049     14.38622      9.15959         0.007252     -0.001502      0.011922
Ir     10.76394      9.16735     11.69938        -0.003655      0.013629     -0.026303
Ir      8.66553     10.08397      7.74907        -0.006653      0.009862      0.007709
Ir     13.85228     12.48850      9.04831         0.005460      0.001094     -0.026578
Ir     11.96434     13.55258      7.82319        -0.001078     -0.001121      0.001652
Ir     14.27454      9.87875      9.00741         0.004463     -0.007734     -0.014396
Ir      9.16565      7.44104     10.35686         0.000646     -0.004347      0.005231
Ir      8.15014     12.76911      7.83085         0.009175     -0.001084      0.006215
Ir      9.10996      7.60946      7.79291        -0.004137     -0.011550      0.011063
Ir     11.86028     13.48488     13.02629        -0.000986     -0.005082     -0.007992
Ir     11.34263      6.66770     11.67974         0.003271      0.002122      0.005097
Ir     10.22909     11.81426      9.07447        -0.002940     -0.002007     -0.006193
Ir     12.85802      8.29542     12.94808         0.003912      0.012488      0.005118
Ir     10.78396      9.15239      8.96241        -0.006180      0.001763     -0.009495
Ir     11.78596     13.56897     10.41880         0.021127     -0.008955     -0.001634
Ir     13.82643     12.56691     11.77720         0.003216      0.011631      0.000185
Ir     12.35436     10.95742     13.08109         0.008327      0.013142     -0.019254
Ir     10.10271     11.72386      6.48767        -0.011120     -0.005862      0.007680
Ir     11.27876      6.57111      9.18066         0.000576     -0.001404      0.007933
Ir      7.16438      8.36742     11.78760        -0.019905      0.000373     -0.003472
Ir      8.16543     12.71032     10.43064         0.002925      0.004572     -0.006915
Ir     10.85182      9.25184     14.25743        -0.007383      0.002114      0.000757
Ir      8.07072     12.53569     12.98321         0.002679     -0.005550      0.012425
Ir      6.54174     11.28423      9.05850         0.003630      0.009487     -0.004405
Ir      8.62829     10.04453     13.04148        -0.007036     -0.001990     -0.005507
Ir      6.54979     10.91541     11.52058        -0.004673      0.012979      0.001055
Ir      9.10109      7.46251     13.02251        -0.011568     -0.000108      0.011976
Ir     10.17757     11.64803     14.35659         0.002175     -0.000803     -0.004697
Ir      8.68817     10.06520     10.38936         0.009694     -0.002674     -0.010844
