152
# total energy = -1110.39299982 eVH     10.35389      5.87395      7.64558        -0.388131     -0.130059      1.150246
H     10.62451     15.10445      7.64558         0.327968      0.078046      0.919519
H     10.62451      5.87395     13.33282        -0.318838     -0.676561     -1.337893
H     10.35389     15.10445     13.33282        -0.587775      0.430842     -0.332596
H      7.64558     10.35389      5.87395         0.558233     -0.521110     -0.101076
H      7.64558     10.62451     15.10445         0.385591     -0.233994      0.043624
H     13.33282     10.62451      5.87395        -0.580508      0.647504     -0.048631
H     13.33282     10.35389     15.10445        -0.525510      0.387167      0.153816
H      5.87395      7.64558     10.35389         0.149393      0.556545      0.027983
H     15.10445      7.64558     10.62451         0.428537      1.023358      0.284813
H      5.87395     13.33282     10.62451        -0.220905     -0.503567      0.362281
H     15.10445     13.33282     10.35389         0.027956     -0.299077     -0.379647
H      5.87395     10.35389      7.64558        -0.103992     -0.412691      1.489093
H     15.10445     10.62451      7.64558         0.219508      0.515517      1.327477
H      5.87395     10.62451     13.33282        -0.217775     -0.369836     -1.205596
H     15.10445     10.35389     13.33282         0.613406      1.003109     -1.533444
H     10.35389      7.64558      5.87395        -0.585444      0.531031     -0.172854
H     10.62451      7.64558     15.10445        -0.133796      0.450087      0.157499
H     10.62451     13.33282      5.87395         0.869600     -1.328561     -0.312692
H     10.35389     13.33282     15.10445         0.224781     -0.562412     -0.105984
H      7.64558      5.87395     10.35389         0.720578      0.163719     -0.173792
H      7.64558     15.10445     10.62451         1.980608      0.748590      0.224158
H     13.33282      5.87395     10.62451        -2.655722     -0.905115     -0.515329
H     13.33282     15.10445     10.35389        -0.877920     -0.056306     -0.252435
H     12.45634     12.45634     19.01126         0.271945      0.258022     -0.227228
H     19.01126     19.01126     19.01126        -0.266806     -0.254640     -0.238577
H     19.01126     12.45634     12.45634        -0.284098      0.281878      0.184992
H     12.45634     19.01126     12.45634         0.256447     -0.250495      0.235900
C     10.35284      5.61067      6.59456         0.076592     -0.483483     -1.203487
C     10.62556     15.36773      6.59456         0.191595      0.754120     -0.811456
C     10.62556      5.61067     14.38384         0.180515     -0.295706      1.785347
C     10.35284     15.36773     14.38384         0.085837      0.384061      1.794802
C      6.59456     10.35284      5.61067        -1.138479     -0.110340     -0.896776
C      6.59456     10.62556     15.36773        -0.701881     -0.094628      0.795762
C     14.38384     10.62556      5.61067         0.837449     -0.111169     -0.989978
C     14.38384     10.35284     15.36773         1.177688      0.168458      1.098236
C      5.61067      6.59456     10.35284        -0.668302     -0.901179     -0.188479
C     15.36773      6.59456     10.62556         2.009917     -0.322837     -0.187580
C      5.61067     14.38384     10.62556        -1.568462     -0.013182     -0.141630
C     15.36773     14.38384     10.35284         0.484755      0.090343      0.000305
C      5.61067     10.35284      6.59456        -0.274928      0.213541     -1.354094
C     15.36773     10.62556      6.59456         0.295548     -0.265998     -0.979716
C      5.61067     10.62556     14.38384        -0.255984      0.447773      1.457862
C     15.36773     10.35284     14.38384         0.004046     -0.488570      1.945554
C     10.35284      6.59456      5.61067        -0.159513     -0.847378     -0.698749
C     10.62556      6.59456     15.36773        -0.118297     -0.714703      1.045254
C     10.62556     14.38384      5.61067        -0.501240      1.987422     -0.752898
C     10.35284     14.38384     15.36773        -0.259394      1.357981      0.503291
C      6.59456      5.61067     10.35284        -0.989144     -0.409676      0.094677
C      6.59456     15.36773     10.62556        -1.255989      0.369860     -0.332819
C     14.38384      5.61067     10.62556         1.271931     -1.303242      0.217980
C     14.38384     15.36773     10.35284         0.458187      0.310740      0.086422
C     10.40319      3.19606      7.29314         0.001127      0.305080     -0.111382
C     10.35913      4.25547      6.23373         0.142153     -0.576873      0.016520
C      0.08601      7.29314      7.29314        -0.053475     -0.279307     -0.419444
C      0.13007      6.23373      6.23373        -0.123612      0.669367      0.017111
C      0.08601      3.19606      3.19606        -0.105722      1.663536      0.165782
C      0.13007      4.25547      4.25547        -0.097293     -0.391804     -1.206741
C     10.40319      7.29314      3.19606         0.015832     -0.449945      0.121714
C     10.35913      6.23373      4.25547         0.264152      0.087008     -0.535765
C      7.29314     10.40319      3.19606        -1.697320      0.011192      0.324786
C      6.23373     10.35913      4.25547         0.670532      0.081345     -0.623101
C      7.29314      0.08601      7.29314        -0.410640     -0.015312     -0.317342
C      6.23373      0.13007      6.23373         0.727653     -0.058408      0.245762
C      3.19606      0.08601      3.19606         0.661087     -0.018293      0.180033
C      4.25547      0.13007      4.25547        -0.356691     -0.085741     -0.571651
C      3.19606     10.40319      7.29314         0.349805      0.023675     -0.319597
C      4.25547     10.35913      6.23373        -0.741284      0.078807      0.363074
C      3.19606      7.29314     10.40319         0.284800     -0.202375     -0.006350
C      4.25547      6.23373     10.35913         0.042299      0.633296      0.091826
C      7.29314      7.29314      0.08601        -0.715817     -0.610004     -0.027617
C      6.23373      6.23373      0.13007         0.903093      1.124468     -0.065406
C      3.19606      3.19606      0.08601         0.824139      0.514697      0.001186
C      4.25547      4.25547      0.13007        -0.326239     -1.767688     -0.130209
C      7.29314      3.19606     10.40319        -0.324836      0.270969     -0.004337
C      6.23373      4.25547     10.35913         0.508311     -0.020625      0.231220
O     10.43466      3.58206      8.50569        -0.048644      0.187228      0.259965
O     10.54374     17.39634      8.50569         0.042235     -0.236304      0.486704
O     10.54374      3.58206     12.47271         0.083940     -0.075719     -0.022202
O     10.43466     17.39634     12.47271        -0.023194     -0.141469     -0.268418
O      8.50569     10.43466      3.58206         0.993087      0.190199      0.376815
O      8.50569     10.54374     17.39634         0.579841      0.084564     -0.229491
O     12.47271     10.54374      3.58206        -0.413435     -0.040825      0.181961
O     12.47271     10.43466     17.39634        -0.506364     -0.067378     -0.192738
O      3.58206      8.50569     10.43466         0.184506      0.423426     -0.028614
O     17.39634      8.50569     10.54374        -0.230543      0.712868      0.046465
O      3.58206     12.47271     10.54374         0.162184     -0.682206      0.026500
O     17.39634     12.47271     10.43466        -0.186772     -0.474670     -0.010191
O      3.58206     10.43466      8.50569         0.231326     -0.061664      0.406468
O     17.39634     10.54374      8.50569        -0.172066      0.037524      0.412808
O      3.58206     10.54374     12.47271         0.148336      0.021612     -0.303567
O     17.39634     10.43466     12.47271         0.081512     -0.051612     -0.069963
O     10.43466      8.50569      3.58206         0.005037      0.273723      0.183877
O     10.54374      8.50569     17.39634         0.069584      0.426312     -0.174042
O     10.54374     12.47271      3.58206        -0.222128     -0.974875      0.329741
O     10.43466     12.47271     17.39634        -0.082182     -0.450865     -0.245157
O      8.50569      3.58206     10.43466         0.488855      0.197572     -0.009732
O      8.50569     17.39634     10.54374         0.664942     -0.203526      0.022509
O     12.47271      3.58206     10.54374        -0.747366      0.280811      0.038389
O     12.47271     17.39634     10.43466        -0.432156     -0.205885     -0.043448
O     11.90042     11.90042     19.56718        -0.347255     -0.307084      0.261229
O     19.56718     19.56718     19.56718         0.324102      0.311842      0.284393
O     19.56718     11.90042     11.90042         0.274447     -0.273418     -0.137990
O     11.90042     19.56718     11.90042        -0.305277      0.283181     -0.232933
O      9.45224      1.03696      9.45224        -0.061418      0.073458     -0.044827
O      1.03696      9.45224      9.45224         0.035814     -0.075512     -0.069822
O      1.03696      1.03696      1.03696         0.063780      0.150499      0.095418
O      9.45224      9.45224      1.03696        -0.143694     -0.098602      0.095830
Zr     10.48920      2.52580     10.48920         0.164387     -0.173555     -0.168018
Zr     10.48920     18.45260     10.48920        -0.101602      0.187736     -0.050996
Zr     10.48920     10.48920      2.52580         0.344553     -0.310396     -0.205460
Zr     10.48920     10.48920     18.45260         0.015254     -0.088563      0.199955
Zr      2.52580     10.48920     10.48920        -0.072172      0.180183     -0.052365
Zr     18.45260     10.48920     10.48920         0.147314     -0.132956     -0.252886
Ir     12.03850     12.48287     10.45366        -0.025150      0.014763      0.029379
Ir     11.22018      7.41307     10.24037         0.010914     -0.000983     -0.019530
Ir      8.85797      7.34780     11.52059         0.002647     -0.009242     -0.014996
Ir      7.45981     11.64752      7.65739        -0.004971      0.004078      0.003264
Ir     11.59591     12.07118      7.11170        -0.001725     -0.006963     -0.008241
Ir     13.78626      8.99354      7.51998         0.003266     -0.003084     -0.008448
Ir     12.47036     13.95177      8.40627        -0.004080      0.003299     -0.005772
Ir      9.74070     11.25408      5.53779         0.006940     -0.004231     -0.003944
Ir      9.07404     13.44067      7.07708        -0.005375     -0.012396      0.005727
Ir      9.26475      9.67380      7.49763        -0.004067      0.006141     -0.016282
Ir     13.28640      7.03480     11.95995        -0.002669      0.003516      0.008963
Ir     13.64199      7.04230      9.10657         0.012588      0.007102     -0.008288
Ir     11.04515      7.58995     12.79608         0.004239     -0.003045     -0.017648
Ir     13.59676     11.56442      8.75060         0.008756     -0.003027     -0.011516
Ir     11.50193      9.61975      6.21737        -0.005799     -0.007727     -0.005539
Ir      7.16197      9.14444      8.91818        -0.002668     -0.007204     -0.006903
Ir     14.06063     11.43997     11.64540         0.003220      0.003522     -0.001444
Ir     11.66167      9.82389      8.85747         0.000034     -0.021525     -0.012707
Ir      9.44460      9.49814     10.22334         0.008433     -0.003662     -0.003469
Ir     13.88082      9.41358     10.16512         0.006701     -0.004111     -0.007916
Ir     13.83967      9.16299     12.87711         0.006358     -0.007131     -0.013724
Ir     11.70416      9.75776     11.53582         0.001931     -0.002412     -0.009772
Ir      9.91781     11.72665      8.96123        -0.000083      0.007015     -0.002854
Ir      9.11324      7.43418      8.76468         0.013459     -0.002214     -0.020559
Ir     11.64329      7.51867      7.71709         0.031416     -0.015214     -0.014179
Ir      9.25619      9.46470     13.00157         0.000570     -0.008461     -0.003613
Ir      7.50503     13.89855      8.99445         0.001159     -0.005242     -0.001958
Ir     10.86136     14.09767     11.95272         0.005105     -0.028069     -0.015028
Ir     10.11047     14.14368      9.51460         0.002701     -0.014041      0.002178
Ir      9.78991     11.67628     11.72265         0.019006     -0.003698     -0.003116
Ir      7.59099     11.55952     10.20565        -0.000060     -0.002551     -0.009629
Ir      8.34303     13.73137     11.58154        -0.004654      0.000652     -0.002676
Ir      7.52562     11.53858     12.82049        -0.006754     -0.009611      0.004592
Ir      9.77985     11.58707     14.34178         0.004963     -0.010661      0.000977
Ir     13.46371     13.88389     12.18542        -0.009679     -0.007561     -0.001869
Ir     11.98971     12.04094     13.07624         0.000006      0.002558     -0.015792
Ir     11.58734      9.77642     14.17471         0.004361     -0.015108     -0.009997
Ir      7.15869      9.34338     11.47678        -0.001643     -0.009388     -0.005364
