31
# total energy = -195.18735941 eVH      2.21521      8.01484      7.50000         0.006293      0.007948      0.000000
H      8.91419      3.11456      7.50000        -0.006293     -0.007948      0.000000
H      3.11456      2.21521      7.50000        -0.007948      0.006293      0.000000
H      8.01484      8.91419      7.50000         0.007948     -0.006293      0.000000
H      1.48516      6.35832      7.50000         0.000932     -0.001325      0.000000
H      9.64424      4.77108      7.50000        -0.000932      0.001325      0.000000
H      4.77108      1.48516      7.50000         0.001325      0.000932      0.000000
H      6.35832      9.64424      7.50000        -0.001325     -0.000932      0.000000
H      4.18037      9.01591      7.50000        -0.005377      0.020130      0.000000
H      6.94903      2.11349      7.50000         0.005377     -0.020130      0.000000
H      2.11349      4.18037      7.50000        -0.020130     -0.005377      0.000000
H      9.01591      6.94903      7.50000         0.020130      0.005377      0.000000
C      8.51215      0.92921      7.50000        -0.003668      0.001924      0.000000
C      2.61725     10.20019      7.50000         0.003668     -0.001924     -0.000000
C     10.20019      8.51215      7.50000        -0.001924     -0.003668      0.000000
C      0.92921      2.61725      7.50000         0.001924      0.003668     -0.000000
C      9.19932     10.76220      7.50000         0.007504      0.004834     -0.000000
C      1.93008      0.36720      7.50000        -0.007504     -0.004834      0.000000
C      0.36720      9.19932      7.50000        -0.004834      0.007504      0.000000
C     10.76220      1.93008      7.50000         0.004834     -0.007504     -0.000000
C      9.37320      2.10620      7.50000        -0.017038     -0.001149      0.000000
C      1.75620      9.02320      7.50000         0.017038      0.001149     -0.000000
C      9.02320      9.37320      7.50000         0.001149     -0.017038     -0.000000
C      2.10620      1.75620      7.50000        -0.001149      0.017038     -0.000000
N      3.96619     10.02023      7.50000         0.011918     -0.031383     -0.000000
N      7.16321      1.10917      7.50000        -0.011918      0.031383      0.000000
N      1.10917      3.96619      7.50000         0.031383      0.011918      0.000000
N     10.02023      7.16321      7.50000        -0.031383     -0.011918      0.000000
Ir      0.00000     -0.00000      7.50000         0.000000      0.000000      0.000000
Ir      5.56470     -0.00000      7.50000         0.000000      0.000000      0.000000
Ir      0.00000      5.56470      7.50000         0.000000      0.000000      0.000000
