152
# total energy = -1004.50241863 eVH     10.35389      5.87395      7.64558        -0.128093      0.119050      0.657833
H     10.62451     15.10445      7.64558        -0.112990     -0.179673      0.532066
H     10.62451      5.87395     13.33282         0.395873      0.024351     -0.859400
H     10.35389     15.10445     13.33282         0.049014     -0.171864     -0.497306
H      7.64558     10.35389      5.87395         0.359735      0.044490      0.149652
H      7.64558     10.62451     15.10445         0.952841      0.635575      0.018865
H     13.33282     10.62451      5.87395        -0.463070      0.112763      0.158410
H     13.33282     10.35389     15.10445        -0.823255     -0.243346      0.031458
H      5.87395      7.64558     10.35389         0.220737      1.766219      0.194514
H     15.10445      7.64558     10.62451        -0.081552      0.514315      0.262882
H      5.87395     13.33282     10.62451         0.195616     -0.555979     -0.011201
H     15.10445     13.33282     10.35389         0.187591     -1.304745     -0.483819
H      5.87395     10.35389      7.64558         0.142778      0.042567      0.491916
H     15.10445     10.62451      7.64558        -0.213301      0.844579      1.338480
H      5.87395     10.62451     13.33282        -0.006308      0.518827     -1.194556
H     15.10445     10.35389     13.33282         0.053159     -0.200649     -0.793974
H     10.35389      7.64558      5.87395         0.221633      1.299746      0.112339
H     10.62451      7.64558     15.10445         0.522104      0.770788     -0.097380
H     10.62451     13.33282      5.87395        -0.412616     -0.691875      0.313966
H     10.35389     13.33282     15.10445        -0.248509     -0.496235     -0.328281
H      7.64558      5.87395     10.35389         1.164977     -0.226782     -0.073720
H      7.64558     15.10445     10.62451         0.840811     -0.187642     -0.009350
H     13.33282      5.87395     10.62451        -0.602728      0.123999      0.654729
H     13.33282     15.10445     10.35389        -0.549109     -0.021213     -0.245560
H     12.45634     12.45634     19.01126         0.267256      0.256059     -0.230369
H     19.01126     19.01126     19.01126        -0.269709     -0.262311     -0.222495
H     19.01126     12.45634     12.45634        -0.277951      0.256970      0.226122
H     12.45634     19.01126     12.45634         0.241644     -0.279884      0.243842
C     10.35284      5.61067      6.59456        -0.160654     -0.806287     -0.392133
C     10.62556     15.36773      6.59456         0.059018      0.236923     -0.316774
C     10.62556      5.61067     14.38384        -0.033034     -0.425927      0.573497
C     10.35284     15.36773     14.38384         0.007436      0.253646      0.490732
C      6.59456     10.35284      5.61067        -0.458916      0.041682     -0.306402
C      6.59456     10.62556     15.36773        -0.931056      0.167246      0.696504
C     14.38384     10.62556      5.61067         0.626679     -0.001704     -0.926742
C     14.38384     10.35284     15.36773         0.932307     -0.122226      0.353355
C      5.61067      6.59456     10.35284        -0.881883     -0.984217     -0.446674
C     15.36773      6.59456     10.62556         0.701960     -0.032698     -0.242050
C      5.61067     14.38384     10.62556        -0.251622      0.598019      0.014505
C     15.36773     14.38384     10.35284         0.314864      1.282573      0.085442
C      5.61067     10.35284      6.59456        -0.272470      0.015195     -0.696753
C     15.36773     10.62556      6.59456         0.532269     -0.298894     -0.851879
C      5.61067     10.62556     14.38384        -0.511630     -0.013756      0.784401
C     15.36773     10.35284     14.38384         0.498885     -0.081633      1.037165
C     10.35284      6.59456      5.61067        -0.085621     -0.900710     -0.372498
C     10.62556      6.59456     15.36773         0.123641     -0.780169      0.492081
C     10.62556     14.38384      5.61067         0.122057      1.102082     -0.308611
C     10.35284     14.38384     15.36773        -0.026790      1.048030      0.500734
C      6.59456      5.61067     10.35284        -0.540298     -1.239923      0.094489
C      6.59456     15.36773     10.62556        -1.003576      0.194093      0.099890
C     14.38384      5.61067     10.62556        -0.132186     -0.490482     -0.282073
C     14.38384     15.36773     10.35284         0.276290      0.581079     -0.066136
C     10.40319      3.19606      7.29314         0.010686      0.871873     -0.531516
C     10.35913      4.25547      6.23373         0.044158     -0.537492      0.136022
C      0.08601      7.29314      7.29314        -0.027589     -0.983295     -0.216421
C      0.13007      6.23373      6.23373        -0.091415      0.318201      0.318713
C      0.08601      3.19606      3.19606         0.053713      1.337325      0.146917
C      0.13007      4.25547      4.25547        -0.030364     -0.345297     -0.378441
C     10.40319      7.29314      3.19606        -0.003108     -0.487733      0.264409
C     10.35913      6.23373      4.25547        -0.016139      0.112251     -0.733778
C      7.29314     10.40319      3.19606        -0.299070      0.020487      0.517155
C      6.23373     10.35913      4.25547         0.209252      0.087604     -0.111275
C      7.29314      0.08601      7.29314        -1.023276     -0.100097     -0.378237
C      6.23373      0.13007      6.23373         0.690098     -0.197548      0.458061
C      3.19606      0.08601      3.19606         1.237112     -0.019339      0.421098
C      4.25547      0.13007      4.25547        -0.677260     -0.172959     -0.270185
C      3.19606     10.40319      7.29314         0.566635      0.023409     -0.360455
C      4.25547     10.35913      6.23373        -0.234686      0.104881      0.223326
C      3.19606      7.29314     10.40319         0.338036     -0.876125      0.035102
C      4.25547      6.23373     10.35913        -1.105127      0.145586      0.187921
C      7.29314      7.29314      0.08601        -0.471236     -0.502510     -0.015912
C      6.23373      6.23373      0.13007         0.486741      0.319616      0.001239
C      3.19606      3.19606      0.08601         0.529021      0.401251     -0.024328
C      4.25547      4.25547      0.13007        -0.023235     -0.727774     -0.094433
C      7.29314      3.19606     10.40319        -0.397122      0.504882      0.056321
C      6.23373      4.25547     10.35913         0.572167     -0.702725      0.222309
O     10.43466      3.58206      8.50569        -0.000279      0.079963      0.497264
O     10.54374     17.39634      8.50569         0.055959     -0.021823      0.265733
O     10.54374      3.58206     12.47271        -0.003363     -0.090827     -0.123755
O     10.43466     17.39634     12.47271        -0.037706     -0.132816     -0.478595
O      8.50569     10.43466      3.58206         0.379548     -0.025969      0.049326
O      8.50569     10.54374     17.39634         0.847070     -0.053553     -0.157798
O     12.47271     10.54374      3.58206        -0.893398      0.109670      0.062118
O     12.47271     10.43466     17.39634        -0.592609      0.023846     -0.148357
O      3.58206      8.50569     10.43466         0.190889      0.885807     -0.017806
O     17.39634      8.50569     10.54374        -0.152025      0.674254      0.041482
O      3.58206     12.47271     10.54374         0.106291     -0.543797      0.052970
O     17.39634     12.47271     10.43466        -0.165548     -0.601583     -0.036931
O      3.58206     10.43466      8.50569         0.077930     -0.059687      0.458772
O     17.39634     10.54374      8.50569         0.025654      0.096530      0.398896
O      3.58206     10.54374     12.47271        -0.030269      0.026174     -0.331862
O     17.39634     10.43466     12.47271        -0.199480     -0.034259     -0.655008
O     10.43466      8.50569      3.58206        -0.032490      0.580527      0.161958
O     10.54374      8.50569     17.39634        -0.090522      0.797900     -0.224802
O     10.54374     12.47271      3.58206         0.094163     -0.952959      0.132884
O     10.43466     12.47271     17.39634         0.069872     -0.730926     -0.191610
O      8.50569      3.58206     10.43466         0.570479      0.143075     -0.047679
O      8.50569     17.39634     10.54374         0.549744     -0.150226      0.003602
O     12.47271      3.58206     10.54374        -0.686167      0.152774      0.020191
O     12.47271     17.39634     10.43466        -0.420689     -0.050717     -0.033558
O     11.90042     11.90042     19.56718        -0.316593     -0.291951      0.241377
O     19.56718     19.56718     19.56718         0.305550      0.307457      0.217840
O     19.56718     11.90042     11.90042         0.333490     -0.272922     -0.233627
O     11.90042     19.56718     11.90042        -0.260228      0.344668     -0.263254
O      9.45224      1.03696      9.45224        -0.022226      0.081834     -0.128933
O      1.03696      9.45224      9.45224         0.068300     -0.040129     -0.131456
O      1.03696      1.03696      1.03696         0.081844      0.109733      0.082346
O      9.45224      9.45224      1.03696        -0.061786     -0.052698      0.064930
Zr     10.48920      2.52580     10.48920        -0.057455     -0.203736      0.030369
Zr     10.48920     18.45260     10.48920        -0.006288      0.080551      0.165628
Zr     10.48920     10.48920      2.52580        -0.291168     -0.412032     -0.333333
Zr     10.48920     10.48920     18.45260         0.084588      0.028970      0.417157
Zr      2.52580     10.48920     10.48920        -0.212674      0.102208      0.000400
Zr     18.45260     10.48920     10.48920         0.174341     -0.007740     -0.000614
Pd     13.05898      8.51493      9.81652        -0.137219      0.239697     -0.065018
Pd      6.20192      9.62752     10.22652         0.055385      0.087956      0.005808
Pd      6.98836     11.59310     11.78120        -0.166117      0.002663     -0.109542
Pd     12.36571     13.25255      7.31342        -0.072070     -0.063285     -0.025106
Pd     12.13630      7.81982      7.09384         0.009841     -0.026943      0.034067
Pd      8.46834      7.28349      6.89376         0.012367     -0.029572      0.009775
Pd     11.35199     11.43242      5.57745        -0.070434      0.024567     -0.002370
Pd     14.56217      8.79103      7.59254        -0.102654     -0.075247     -0.053361
Pd      9.91213     11.82067      7.97495         0.049722     -0.015967     -0.021974
Pd      7.04299      7.13810     12.02665        -0.065251     -0.117885      0.022377
Pd      6.33270      7.50246      8.41530         0.076961     -0.024820     -0.049553
Pd      7.22446      9.11938     13.68730        -0.082881      0.048548     -0.040082
Pd     11.41587      6.35411      9.22762         0.099453     -0.000758     -0.089035
Pd      9.99936      9.50059      6.61929        -0.005828     -0.009547     -0.057397
Pd      9.03453     14.00854      9.36571         0.077995      0.012758     -0.049741
Pd     10.85572      7.45816     11.45174        -0.011069      0.056172      0.168332
Pd     10.46291      9.09480      9.28831         0.328548      0.135693      0.037330
Pd      9.49178     11.53606     10.57189         0.086454      0.011821      0.079364
Pd      8.85682      7.10892      9.59376        -0.077786     -0.038383     -0.040831
Pd      9.19180      7.43712     13.48626         0.025850     -0.079777     -0.054328
Pd      8.62379      9.21586     11.34449        -0.029211     -0.014935     -0.029570
Pd     12.26197     10.44151      7.87816        -0.018595     -0.082064      0.073270
Pd      7.30819     11.95958      9.14392        -0.113031     -0.053205     -0.018135
Pd      8.09338      9.57741      8.37993        -0.212613      0.048758      0.104045
Pd     14.00561      6.38185      8.52078         0.077786     -0.065299     -0.096945
Pd     13.14422      8.48476     12.44939        -0.030334      0.064410     -0.080413
Pd      8.99840     11.42672     13.36805         0.076157      0.107445      0.094307
Pd     13.89572     12.03170      9.06930         0.028458     -0.006717      0.044292
Pd     13.16421     11.16929     13.17816         0.092940     -0.088395      0.022052
Pd     14.68311     10.37096     11.03190        -0.073054     -0.024941     -0.091955
Pd     12.03568     10.79855     10.72878         0.025715     -0.186359     -0.203439
Pd     11.52299     13.29821      9.77081         0.007113     -0.092932      0.247400
Pd     13.64783     13.13543     11.56693        -0.094268     -0.003997      0.060853
Pd     11.15234     12.78116     12.40436        -0.100785      0.096840     -0.053934
Pd     11.23286     11.59429     14.87713        -0.169742     -0.039925      0.082261
Pd     10.88268      9.72786     12.85262         0.057520     -0.155787      0.007744
Pd      9.54133      9.53222     15.21009         0.052446      0.032592      0.023364
Pd      8.70518     13.73121     12.00519         0.039243     -0.013283      0.062478
