152
# total energy = -1060.27360604 eVH     10.35389      5.87395      7.64558        -0.176456      0.126820      0.999387
H     10.62451     15.10445      7.64558         0.271453     -0.088921      0.809089
H     10.62451      5.87395     13.33282        -0.271503      0.082800     -0.733884
H     10.35389     15.10445     13.33282         0.144620     -0.276483     -0.772636
H      7.64558     10.35389      5.87395         0.890969     -0.243487      0.204396
H      7.64558     10.62451     15.10445         0.271533     -0.005581     -0.064446
H     13.33282     10.62451      5.87395        -0.833572      0.128348      0.192809
H     13.33282     10.35389     15.10445        -0.292323     -0.055415     -0.048945
H      5.87395      7.64558     10.35389         0.097772      0.426726      0.000238
H     15.10445      7.64558     10.62451        -0.077959      0.478509      0.055150
H      5.87395     13.33282     10.62451         0.018083     -0.935941      0.102876
H     15.10445     13.33282     10.35389        -0.153462     -0.368225      0.018024
H      5.87395     10.35389      7.64558         0.316778      0.053337      0.363132
H     15.10445     10.62451      7.64558        -0.122147     -0.134742      0.610713
H      5.87395     10.62451     13.33282        -0.053491      0.427140     -0.662821
H     15.10445     10.35389     13.33282         0.161198     -0.478121     -0.930068
H     10.35389      7.64558      5.87395         0.011279      0.478806      0.330932
H     10.62451      7.64558     15.10445         0.342285      0.803493     -0.040889
H     10.62451     13.33282      5.87395         0.096238     -0.567146      0.203709
H     10.35389     13.33282     15.10445         0.085860     -0.329541     -0.146957
H      7.64558      5.87395     10.35389         0.381502      0.124760      0.057357
H      7.64558     15.10445     10.62451         0.378996     -0.129738      0.199688
H     13.33282      5.87395     10.62451        -0.313600      0.132897     -0.007218
H     13.33282     15.10445     10.35389        -0.663252     -0.164450      0.204889
H     12.45634     12.45634     19.01126         0.263280      0.272345     -0.220753
H     19.01126     19.01126     19.01126        -0.254273     -0.265228     -0.238804
H     19.01126     12.45634     12.45634        -0.245394      0.272040      0.237060
H     12.45634     19.01126     12.45634         0.293126     -0.229684      0.236357
C     10.35284      5.61067      6.59456         0.351254     -0.378142     -1.317062
C     10.62556     15.36773      6.59456        -0.238210      0.661875     -0.701770
C     10.62556      5.61067     14.38384         0.357241     -0.266782      0.735859
C     10.35284     15.36773     14.38384        -0.183560      0.318264      0.942182
C      6.59456     10.35284      5.61067        -1.323948      0.024920     -0.191779
C      6.59456     10.62556     15.36773        -0.607944      0.064727      0.346160
C     14.38384     10.62556      5.61067         1.404686     -0.173569     -0.629489
C     14.38384     10.35284     15.36773         0.339499     -0.129477      0.385745
C      5.61067      6.59456     10.35284        -0.263545     -0.633583     -0.020742
C     15.36773      6.59456     10.62556         0.405973     -0.842498     -0.037072
C      5.61067     14.38384     10.62556        -0.162240      1.106309     -0.185672
C     15.36773     14.38384     10.35284         0.457951      0.726109     -0.046759
C      5.61067     10.35284      6.59456        -0.362230     -0.127361     -0.725615
C     15.36773     10.62556      6.59456         0.339266      0.124251     -0.583600
C      5.61067     10.62556     14.38384        -0.333602     -0.146819      1.238698
C     15.36773     10.35284     14.38384         0.170390      0.209722      1.308380
C     10.35284      6.59456      5.61067        -0.065681     -0.681317     -0.438474
C     10.62556      6.59456     15.36773        -0.139197     -1.038499      0.371273
C     10.62556     14.38384      5.61067        -0.499516      0.384129     -0.724438
C     10.35284     14.38384     15.36773        -0.159087      0.648631      0.490844
C      6.59456      5.61067     10.35284        -0.548775     -0.326236      0.020251
C      6.59456     15.36773     10.62556        -0.292318      0.434988      0.083289
C     14.38384      5.61067     10.62556         0.440806     -0.317686      0.012114
C     14.38384     15.36773     10.35284         1.127882      0.434563     -0.118529
C     10.40319      3.19606      7.29314        -0.010929      0.914073     -0.362816
C     10.35913      4.25547      6.23373         0.014584     -0.333324      0.319728
C      0.08601      7.29314      7.29314        -0.017894     -0.469988     -0.511999
C      0.13007      6.23373      6.23373        -0.062071      0.808243      0.101247
C      0.08601      3.19606      3.19606        -0.009130      0.652773      0.247079
C      0.13007      4.25547      4.25547         0.067492     -0.255698     -0.555805
C     10.40319      7.29314      3.19606        -0.057771     -1.073435      0.707379
C     10.35913      6.23373      4.25547        -0.063212      0.328609     -0.186737
C      7.29314     10.40319      3.19606        -1.078405     -0.053799      0.230593
C      6.23373     10.35913      4.25547         0.381742      0.112964     -0.533419
C      7.29314      0.08601      7.29314        -0.632992      0.019652     -0.373590
C      6.23373      0.13007      6.23373         0.167596      0.097028      0.097924
C      3.19606      0.08601      3.19606         0.662616      0.008705      0.168756
C      4.25547      0.13007      4.25547        -0.195581     -0.080234     -0.329301
C      3.19606     10.40319      7.29314         0.511733     -0.029628     -0.951216
C      4.25547     10.35913      6.23373        -0.138085     -0.037646      0.158691
C      3.19606      7.29314     10.40319         0.687836     -0.375606      0.009203
C      4.25547      6.23373     10.35913        -0.119578      0.184012     -0.001177
C      7.29314      7.29314      0.08601        -0.453064     -0.287256     -0.011614
C      6.23373      6.23373      0.13007         0.157392      0.137950     -0.104817
C      3.19606      3.19606      0.08601         0.324021      0.533982     -0.015874
C      4.25547      4.25547      0.13007        -0.433727     -0.261623     -0.027168
C      7.29314      3.19606     10.40319        -0.290741      0.594890     -0.003060
C      6.23373      4.25547     10.35913         0.007810     -0.132623      0.020264
O     10.43466      3.58206      8.50569        -0.030546      0.039515      0.245149
O     10.54374     17.39634      8.50569         0.055642     -0.092699      0.536692
O     10.54374      3.58206     12.47271         0.032623      0.111794     -0.410875
O     10.43466     17.39634     12.47271         0.091902     -0.060687     -0.471607
O      8.50569     10.43466      3.58206         0.712660     -0.068043      0.024930
O      8.50569     10.54374     17.39634         0.685102      0.068757     -0.105870
O     12.47271     10.54374      3.58206        -0.618032      0.128413      0.211109
O     12.47271     10.43466     17.39634        -0.363826      0.000379      0.029886
O      3.58206      8.50569     10.43466         0.020683      0.423240     -0.069122
O     17.39634      8.50569     10.54374        -0.056684      0.439803      0.059671
O      3.58206     12.47271     10.54374         0.117707     -0.618402     -0.001008
O     17.39634     12.47271     10.43466        -0.203078     -0.741147     -0.033596
O      3.58206     10.43466      8.50569         0.197239     -0.042526      0.785476
O     17.39634     10.54374      8.50569        -0.008489      0.063258      0.377239
O      3.58206     10.54374     12.47271         0.002927      0.000135     -0.282084
O     17.39634     10.43466     12.47271         0.012746     -0.009862     -0.263666
O     10.43466      8.50569      3.58206        -0.110170      0.519243     -0.090290
O     10.54374      8.50569     17.39634         0.058761      0.555479     -0.071580
O     10.54374     12.47271      3.58206         0.096294     -0.590422      0.121497
O     10.43466     12.47271     17.39634        -0.043984     -0.820608     -0.319078
O      8.50569      3.58206     10.43466         0.400480      0.026740     -0.056225
O      8.50569     17.39634     10.54374         0.645831     -0.155055      0.037250
O     12.47271      3.58206     10.54374        -0.525026      0.117377      0.021713
O     12.47271     17.39634     10.43466        -0.660701     -0.124054      0.049585
O     11.90042     11.90042     19.56718        -0.274626     -0.293842      0.214065
O     19.56718     19.56718     19.56718         0.313736      0.312051      0.289330
O     19.56718     11.90042     11.90042         0.278633     -0.320782     -0.241437
O     11.90042     19.56718     11.90042        -0.314403      0.221373     -0.208325
O      9.45224      1.03696      9.45224        -0.092334      0.118259     -0.063692
O      1.03696      9.45224      9.45224         0.131163     -0.132207     -0.054541
O      1.03696      1.03696      1.03696         0.091155      0.070512      0.076369
O      9.45224      9.45224      1.03696        -0.072690     -0.138617      0.126710
Zr     10.48920      2.52580     10.48920         0.040805     -0.133329      0.166725
Zr     10.48920     18.45260     10.48920        -0.192592      0.264989     -0.339888
Zr     10.48920     10.48920      2.52580         0.130572      0.363114     -0.291329
Zr     10.48920     10.48920     18.45260        -0.086371     -0.249315      0.308385
Zr      2.52580     10.48920     10.48920        -0.273296      0.107713      0.272729
Zr     18.45260     10.48920     10.48920         0.181081     -0.143467     -0.044963
Pd      9.36200     14.42105      9.18996         0.005384     -0.020123      0.116974
Pd      8.62499     13.62459     13.14695         0.008137      0.067453     -0.025455
Pd     12.07657     14.39028      8.79932        -0.164389      0.025308     -0.029210
Pd     12.62387     12.83864     10.78424        -0.142388     -0.088730      0.073666
Pd     12.15454      7.18057     12.66627        -0.106431     -0.117265      0.015364
Pd     11.13346     15.00871     11.38791        -0.097965     -0.032205     -0.013257
Pd      9.89909     12.70330     10.96514         0.172571      0.003149      0.259218
Pd     13.50740     12.24376      8.00316         0.137805     -0.084020      0.052340
Pd     11.54683     11.59806      6.13235        -0.080647      0.130834     -0.162072
Pd      7.91019      8.26498      7.47624         0.039854     -0.018757      0.073044
Pd      8.70460     11.74538      6.85047         0.002065      0.070436     -0.057702
Pd     10.21334      9.43044      8.19744        -0.033502      0.087437     -0.067301
Pd      8.46517     14.45225      6.71935        -0.027227     -0.009248     -0.123137
Pd     12.33821      9.12490      6.74074         0.073296     -0.011073      0.104121
Pd      9.77795      9.67216      5.56307        -0.004446     -0.109124      0.032051
Pd      6.89139      9.47678     12.17145        -0.053146     -0.083177     -0.074108
Pd     12.24564      6.78182      8.02750        -0.000463     -0.191931     -0.241960
Pd      5.92709     10.53825      9.70465        -0.127820     -0.069000      0.096650
Pd      7.51162      7.19165     13.33579         0.088084     -0.035725      0.069409
Ir     11.64249      9.73549     13.08204        -0.087075     -0.096796      0.083820
Ir     13.50154      9.12117     11.51378        -0.104320      0.012801      0.020192
Ir      9.37767      8.82972     14.04285        -0.175839     -0.040731     -0.206256
Ir     10.48175     10.85728     15.09119        -0.069615     -0.085766     -0.106206
Ir      7.28314     11.99871     11.40947         0.102762      0.018441     -0.139810
Ir     14.58589     10.98804     10.24517        -0.001263      0.129333      0.125029
Ir     12.18101     10.55632      9.56366         0.050832      0.088410      0.058675
Ir      8.88699     11.02703     12.99468         0.209696      0.059532     -0.067001
Ir     10.11714      9.95214     11.06336        -0.101909     -0.050715      0.010308
Ir     13.57429     11.42645     12.63751        -0.083320      0.031011     -0.010117
Ir     11.27803     12.25587     13.09583         0.047605      0.087482      0.018549
Ir      8.47909     11.11887      9.33304        -0.018917      0.155609      0.058379
Ir     11.59613      8.01109     10.18250        -0.056861      0.076919     -0.015298
Ir      7.23005     13.05331      8.68884        -0.089244      0.270988     -0.093020
Ir      9.54378      6.94288      9.23391         0.011016      0.060938      0.149520
Ir      8.04131      8.77247     10.01436        -0.066165      0.003439      0.087534
Ir     10.72057     12.14675      8.48310        -0.075803     -0.027393      0.064163
Ir      9.49768      7.63543     11.75312         0.120315     -0.009602      0.047342
Ir     13.76909      8.75598      8.94908         0.126159     -0.029079      0.015777
