152
# total energy = -1024.45407813 eVH     10.35389      5.87395      7.64558         0.487937      0.025197      0.756923
H     10.62451     15.10445      7.64558         0.066446     -0.201072      0.620642
H     10.62451      5.87395     13.33282         0.105107      0.148027     -0.589880
H     10.35389     15.10445     13.33282        -0.514183     -0.023956     -0.755781
H      7.64558     10.35389      5.87395         0.350025      0.026101      0.163516
H      7.64558     10.62451     15.10445         0.968321     -0.238332      0.061104
H     13.33282     10.62451      5.87395        -0.801654     -0.131769      0.153468
H     13.33282     10.35389     15.10445        -0.907060     -0.456760      0.217604
H      5.87395      7.64558     10.35389         0.158758      0.728549     -0.304048
H     15.10445      7.64558     10.62451        -0.142373      0.380568     -0.014730
H      5.87395     13.33282     10.62451         0.155270     -0.501663     -0.100210
H     15.10445     13.33282     10.35389        -0.091014     -1.172702      0.111919
H      5.87395     10.35389      7.64558         0.137756      0.163775      0.500769
H     15.10445     10.62451      7.64558         0.005793      0.112132      1.020517
H      5.87395     10.62451     13.33282         0.067521     -0.039485     -0.472901
H     15.10445     10.35389     13.33282        -0.193156     -0.132352     -0.414943
H     10.35389      7.64558      5.87395         0.075919      0.991712      0.222509
H     10.62451      7.64558     15.10445         0.001952      0.270951     -0.155763
H     10.62451     13.33282      5.87395        -0.085048     -0.393565      0.318535
H     10.35389     13.33282     15.10445        -0.433687     -0.565426      0.005286
H      7.64558      5.87395     10.35389         0.547969      0.082135     -0.114229
H      7.64558     15.10445     10.62451         0.960152     -0.199544     -0.210371
H     13.33282      5.87395     10.62451        -0.589484      0.086622     -0.069174
H     13.33282     15.10445     10.35389        -0.577152     -0.066685      0.266603
H     12.45634     12.45634     19.01126         0.238004      0.276744     -0.237134
H     19.01126     19.01126     19.01126        -0.248127     -0.249672     -0.242555
H     19.01126     12.45634     12.45634        -0.267308      0.264787      0.219255
H     12.45634     19.01126     12.45634         0.236666     -0.266843      0.240983
C     10.35284      5.61067      6.59456        -0.214811     -0.677094      0.079848
C     10.62556     15.36773      6.59456        -0.050590      0.378839     -0.839471
C     10.62556      5.61067     14.38384        -0.007021     -0.059202      0.726171
C     10.35284     15.36773     14.38384         0.206721      0.696276      0.164932
C      6.59456     10.35284      5.61067        -0.365561     -0.015043     -0.304394
C      6.59456     10.62556     15.36773        -1.114212      0.260713      0.283668
C     14.38384     10.62556      5.61067         0.441488      0.373311     -0.675268
C     14.38384     10.35284     15.36773         1.120905      0.049387      0.207442
C      5.61067      6.59456     10.35284        -0.438191     -0.373979      0.356706
C     15.36773      6.59456     10.62556         0.189483     -0.496554      0.009691
C      5.61067     14.38384     10.62556        -0.206725      0.540796     -0.010414
C     15.36773     14.38384     10.35284         0.303374      0.042688     -0.116241
C      5.61067     10.35284      6.59456        -0.333567     -0.082703     -0.989811
C     15.36773     10.62556      6.59456         0.893082     -0.341268     -0.952297
C      5.61067     10.62556     14.38384        -0.444378      0.029796      0.304121
C     15.36773     10.35284     14.38384         0.645766     -0.097725      1.042581
C     10.35284      6.59456      5.61067        -0.251242     -0.568112     -0.944288
C     10.62556      6.59456     15.36773         0.062532     -0.256008      0.049459
C     10.62556     14.38384      5.61067         0.061985      1.197263     -0.414000
C     10.35284     14.38384     15.36773         0.275663      0.179330      0.730494
C      6.59456      5.61067     10.35284        -0.196041     -0.743955      0.173090
C      6.59456     15.36773     10.62556        -1.261202      0.242236      0.183698
C     14.38384      5.61067     10.62556         1.088369     -0.299735      0.041472
C     14.38384     15.36773     10.35284        -0.453347      0.774715     -0.408172
C     10.40319      3.19606      7.29314        -0.036070      0.917497     -0.427512
C     10.35913      4.25547      6.23373         0.055455     -0.539826      0.529880
C      0.08601      7.29314      7.29314        -0.021242     -0.393899     -0.347428
C      0.13007      6.23373      6.23373        -0.024950      0.013756      0.097925
C      0.08601      3.19606      3.19606         0.009987      1.273164      0.197702
C      0.13007      4.25547      4.25547        -0.047057     -0.226571     -0.204933
C     10.40319      7.29314      3.19606        -0.013451     -1.057263      0.373103
C     10.35913      6.23373      4.25547         0.041983      0.485596     -0.663305
C      7.29314     10.40319      3.19606        -0.321918      0.028376      0.725734
C      6.23373     10.35913      4.25547         0.136852      0.058054     -0.099158
C      7.29314      0.08601      7.29314        -0.666714     -0.017547     -0.266131
C      6.23373      0.13007      6.23373         0.376703     -0.081445      0.566519
C      3.19606      0.08601      3.19606         0.997634     -0.006630      0.256819
C      4.25547      0.13007      4.25547        -0.172159     -0.037460     -0.523794
C      3.19606     10.40319      7.29314         0.356368     -0.009254     -0.925129
C      4.25547     10.35913      6.23373        -0.271141      0.091127      0.232725
C      3.19606      7.29314     10.40319         0.522122     -1.371247     -0.037137
C      4.25547      6.23373     10.35913        -0.569007      0.722591      0.101625
C      7.29314      7.29314      0.08601        -0.388945     -0.243000      0.003417
C      6.23373      6.23373      0.13007         0.157576      0.154845     -0.002051
C      3.19606      3.19606      0.08601         0.267838      0.240160     -0.016629
C      4.25547      4.25547      0.13007        -0.125242     -0.051743      0.005689
C      7.29314      3.19606     10.40319        -0.397474      0.615932      0.006767
C      6.23373      4.25547     10.35913         1.057304     -0.149016      0.050932
O     10.43466      3.58206      8.50569        -0.023462      0.034168      0.437908
O     10.54374     17.39634      8.50569        -0.005816     -0.116048      0.468877
O     10.54374      3.58206     12.47271         0.041058     -0.106431     -0.131014
O     10.43466     17.39634     12.47271        -0.058444     -0.042237     -0.475853
O      8.50569     10.43466      3.58206         0.291213     -0.027892     -0.039988
O      8.50569     10.54374     17.39634         0.720467      0.028882     -0.206159
O     12.47271     10.54374      3.58206        -0.780761     -0.038049      0.148493
O     12.47271     10.43466     17.39634        -0.284175     -0.030112      0.034655
O      3.58206      8.50569     10.43466         0.158821      1.120781     -0.030039
O     17.39634      8.50569     10.54374        -0.101880      0.445576      0.059761
O      3.58206     12.47271     10.54374         0.067230     -0.393232      0.035519
O     17.39634     12.47271     10.43466        -0.157549     -0.668556     -0.010603
O      3.58206     10.43466      8.50569         0.067669     -0.068373      0.793986
O     17.39634     10.54374      8.50569        -0.061817      0.043609      0.328721
O      3.58206     10.54374     12.47271        -0.010752      0.037828     -0.240066
O     17.39634     10.43466     12.47271        -0.255019     -0.005478     -0.718447
O     10.43466      8.50569      3.58206         0.118806      0.837802      0.192395
O     10.54374      8.50569     17.39634         0.032139      0.596465     -0.141358
O     10.54374     12.47271      3.58206         0.004001     -1.012584      0.176916
O     10.43466     12.47271     17.39634        -0.044672     -0.954844     -0.213750
O      8.50569      3.58206     10.43466         0.567101      0.131774     -0.016019
O      8.50569     17.39634     10.54374         0.501165     -0.192572     -0.010691
O     12.47271      3.58206     10.54374        -0.481752      0.163427      0.059279
O     12.47271     17.39634     10.43466        -0.401583      0.036355     -0.007903
O     11.90042     11.90042     19.56718        -0.270152     -0.324750      0.257165
O     19.56718     19.56718     19.56718         0.276879      0.293651      0.284174
O     19.56718     11.90042     11.90042         0.301450     -0.300631     -0.202784
O     11.90042     19.56718     11.90042        -0.263426      0.284262     -0.249515
O      9.45224      1.03696      9.45224        -0.081084      0.049827     -0.058856
O      1.03696      9.45224      9.45224         0.042541     -0.154059     -0.113783
O      1.03696      1.03696      1.03696         0.024139      0.121422      0.196389
O      9.45224      9.45224      1.03696        -0.069861     -0.086591      0.117402
Zr     10.48920      2.52580     10.48920        -0.050623     -0.127062     -0.166724
Zr     10.48920     18.45260     10.48920         0.007664      0.214502     -0.027243
Zr     10.48920     10.48920      2.52580        -0.161973     -0.193129     -0.513154
Zr     10.48920     10.48920     18.45260         0.012451     -0.030092      0.433379
Zr      2.52580     10.48920     10.48920        -0.370603      0.313471      0.169872
Zr     18.45260     10.48920     10.48920         0.204986      0.069186     -0.203059
Pd      8.27137      9.65095     13.27354        -0.008826      0.005416      0.009255
Pd     10.47293      9.42341     10.20166         0.011469     -0.007868      0.004680
Pd     12.96255      8.79116     12.48079         0.000990      0.002238     -0.005725
Pd     10.29256     10.83582     15.07116        -0.005241     -0.006804      0.010803
Pd     12.75321     11.37046     13.62120         0.006736     -0.003370      0.002252
Pd     14.84790     10.54714     11.35743         0.003943      0.001969     -0.006617
Pd      6.89672      7.44591     12.30459        -0.001215      0.000683     -0.007946
Pd      9.20475      7.16900      9.47437         0.002043      0.002897      0.000070
Pd      9.59176      7.53423     12.22675        -0.005508     -0.002523     -0.000976
Pd     11.75292      7.06140     10.80100        -0.010338      0.011016     -0.001545
Pd     11.61091      7.81702      8.25898        -0.015430     -0.011746      0.010971
Pd      7.17338     11.65377     11.52732        -0.006561      0.009096     -0.003470
Pd      9.27158     14.30966      9.24430        -0.003379      0.001053      0.004739
Pd      8.11104     12.29543     14.01257        -0.011342     -0.001973      0.004297
Pd     14.21619     14.15869      8.35880         0.001644     -0.006195      0.000231
Pd     11.72140     13.26758      8.80242         0.002954     -0.004932      0.002645
Pd     14.09297     11.58395      9.02158        -0.006088      0.004301      0.002356
Pd      8.67636     13.97743     11.98665         0.001747      0.005469      0.002575
Pd     12.22102     14.02041     13.91922         0.001829     -0.000591      0.005899
Pd     11.39694     14.13455     11.28404         0.001804     -0.004707      0.000970
Pd     13.99549     13.23003     12.09280         0.001271      0.007282      0.002463
Pd     12.26002     11.47467     10.93116        -0.007060     -0.007070     -0.004498
Pd     12.99538     12.58342      6.60342        -0.005873     -0.000909      0.009534
Pd     13.94836      8.83822      7.58097         0.007693     -0.000679     -0.007668
Pd      6.96113      8.42789      8.39295        -0.007535     -0.001611     -0.001302
Pd      5.54913     10.00564     10.07095        -0.012469     -0.010685      0.003240
Pd      9.37752      9.44149      7.44522        -0.000765      0.000647      0.001715
Pd      8.47421      6.94778      6.87751         0.003444     -0.009909     -0.011699
Pd      9.66864     11.93938     10.51067        -0.001390      0.001362      0.009479
Pd     11.76980     10.59886      8.06883         0.004401      0.008262      0.007530
Pd     11.78742      8.93521      5.85471        -0.005422      0.002196     -0.004719
Pd     10.60362     11.33274      5.73851        -0.004614     -0.007116      0.001196
Ir     10.70981      9.86031     12.70872        -0.002541     -0.007266     -0.015360
Ir     13.12699      9.22024      9.95209        -0.017445      0.001192      0.020513
Ir     10.46152     12.31497     12.88950        -0.006855     -0.000853     -0.012093
Ir      7.75656     10.93788      9.07016         0.019557      0.020589     -0.020130
Ir      9.54923     12.04812      7.95512        -0.015192     -0.009090      0.017551
Ir      7.99843      9.14752     10.74642        -0.005092     -0.017683      0.018343
