152
# total energy = -1002.86789021 eVH     10.35389      5.87395      7.64558        -0.022516      0.158284      1.025566
H     10.62451     15.10445      7.64558         0.002511     -0.096553      1.071544
H     10.62451      5.87395     13.33282         0.067695      0.014639     -1.110991
H     10.35389     15.10445     13.33282        -0.154989     -0.173822     -0.933964
H      7.64558     10.35389      5.87395         0.906903      0.335187     -0.251337
H      7.64558     10.62451     15.10445         0.744756      0.315201      0.058542
H     13.33282     10.62451      5.87395        -0.513614      0.148867      0.004703
H     13.33282     10.35389     15.10445        -0.680074     -0.158237      0.051730
H      5.87395      7.64558     10.35389        -0.347172      2.163747      0.282814
H     15.10445      7.64558     10.62451         0.049677      1.423666      0.051794
H      5.87395     13.33282     10.62451         0.042173     -0.979153     -0.132043
H     15.10445     13.33282     10.35389         0.139767     -1.193138     -0.366541
H      5.87395     10.35389      7.64558        -0.872926      0.351956      1.367853
H     15.10445     10.62451      7.64558         0.269267      0.731460      1.603738
H      5.87395     10.62451     13.33282        -0.497999      0.509432     -1.294391
H     15.10445     10.35389     13.33282         1.196158     -0.082148     -1.178435
H     10.35389      7.64558      5.87395         0.467917      1.224888     -0.048606
H     10.62451      7.64558     15.10445         0.306873      0.734228     -0.070356
H     10.62451     13.33282      5.87395        -0.389447     -0.926679      0.021571
H     10.35389     13.33282     15.10445        -0.130127     -0.488795     -0.155580
H      7.64558      5.87395     10.35389         0.789967     -0.155761     -0.008436
H      7.64558     15.10445     10.62451         0.538209     -0.166960     -0.055953
H     13.33282      5.87395     10.62451        -1.033802      0.038834      0.292393
H     13.33282     15.10445     10.35389        -0.429137     -0.087949     -0.059227
H     12.45634     12.45634     19.01126         0.262437      0.235137     -0.246078
H     19.01126     19.01126     19.01126        -0.258027     -0.252165     -0.236171
H     19.01126     12.45634     12.45634        -0.256708      0.266889      0.232269
H     12.45634     19.01126     12.45634         0.264657     -0.264369      0.226184
C     10.35284      5.61067      6.59456        -0.119616     -0.934493     -0.974164
C     10.62556     15.36773      6.59456        -0.045714      0.472564     -0.921221
C     10.62556      5.61067     14.38384        -0.160968     -0.581455      1.502498
C     10.35284     15.36773     14.38384         0.150386      0.301284      0.951349
C      6.59456     10.35284      5.61067        -1.736953      0.178610     -1.054627
C      6.59456     10.62556     15.36773        -1.061101      0.233893      0.816373
C     14.38384     10.62556      5.61067         1.554752      0.160882     -0.942602
C     14.38384     10.35284     15.36773         1.217474      0.011451      0.782388
C      5.61067      6.59456     10.35284        -0.634971     -1.472107     -0.008014
C     15.36773      6.59456     10.62556         0.567843     -0.577976      0.109985
C      5.61067     14.38384     10.62556        -0.342994      1.079985      0.060969
C     15.36773     14.38384     10.35284         0.296661      1.411471      0.082098
C      5.61067     10.35284      6.59456        -0.402387     -0.009815     -1.692450
C     15.36773     10.62556      6.59456         0.497081      0.026020     -1.348646
C      5.61067     10.62556     14.38384        -0.253192     -0.057146      1.417564
C     15.36773     10.35284     14.38384         0.069975     -0.039812      1.755124
C     10.35284      6.59456      5.61067        -0.020490     -1.100165     -0.660943
C     10.62556      6.59456     15.36773         0.081103     -0.687849      0.628851
C     10.62556     14.38384      5.61067         0.107448      0.748071     -0.503748
C     10.35284     14.38384     15.36773        -0.040183      0.465678      0.433748
C      6.59456      5.61067     10.35284        -0.428084     -1.192714      0.010978
C      6.59456     15.36773     10.62556        -0.683754      0.623233      0.003836
C     14.38384      5.61067     10.62556         0.611273     -0.818089     -0.106191
C     14.38384     15.36773     10.35284         0.424318      0.545306     -0.048643
C     10.40319      3.19606      7.29314        -0.024900      0.325103     -0.857449
C     10.35913      4.25547      6.23373        -0.057352     -0.521334      0.165792
C      0.08601      7.29314      7.29314        -0.013277     -0.521824     -0.326533
C      0.13007      6.23373      6.23373        -0.039670      0.398131      0.342050
C      0.08601      3.19606      3.19606         0.003991      0.401304      0.530791
C      0.13007      4.25547      4.25547        -0.002089     -0.445695     -0.421464
C     10.40319      7.29314      3.19606        -0.048554     -0.757686      0.257457
C     10.35913      6.23373      4.25547         0.007381      0.268420     -0.618613
C      7.29314     10.40319      3.19606        -0.695731     -0.016022      0.144237
C      6.23373     10.35913      4.25547         0.357587     -0.037986     -0.412000
C      7.29314      0.08601      7.29314        -0.580462     -0.069623     -0.291954
C      6.23373      0.13007      6.23373         0.549665     -0.160012      0.298980
C      3.19606      0.08601      3.19606         0.724029     -0.044609      0.216012
C      4.25547      0.13007      4.25547        -0.469639     -0.252540     -0.453082
C      3.19606     10.40319      7.29314         0.368990      0.001566     -0.174424
C      4.25547     10.35913      6.23373        -0.281144     -0.027938      0.385341
C      3.19606      7.29314     10.40319         0.288113     -0.424207      0.006870
C      4.25547      6.23373     10.35913        -0.846372      0.169988      0.075962
C      7.29314      7.29314      0.08601        -0.410713     -0.377277     -0.019377
C      6.23373      6.23373      0.13007         0.742074      0.076795     -0.016245
C      3.19606      3.19606      0.08601         0.761173      0.320135     -0.017453
C      4.25547      4.25547      0.13007        -0.293642     -0.697546     -0.063160
C      7.29314      3.19606     10.40319        -0.372018      0.438497      0.013567
C      6.23373      4.25547     10.35913         0.430949     -0.513266      0.075054
O     10.43466      3.58206      8.50569         0.082960      0.245183      0.729897
O     10.54374     17.39634      8.50569         0.016406     -0.147893      0.410384
O     10.54374      3.58206     12.47271         0.094774      0.176015     -0.543822
O     10.43466     17.39634     12.47271        -0.030837     -0.084891     -0.342648
O      8.50569     10.43466      3.58206         0.686009     -0.085505      0.223266
O      8.50569     10.54374     17.39634         0.657686     -0.023557     -0.239828
O     12.47271     10.54374      3.58206        -0.718417      0.077158      0.267539
O     12.47271     10.43466     17.39634        -0.506624      0.017508     -0.222647
O      3.58206      8.50569     10.43466         0.177203      0.579769     -0.024784
O     17.39634      8.50569     10.54374        -0.153503      0.521493      0.038687
O      3.58206     12.47271     10.54374         0.082549     -0.407790      0.033756
O     17.39634     12.47271     10.43466        -0.167520     -0.542022     -0.030445
O      3.58206     10.43466      8.50569         0.158001     -0.024020      0.328892
O     17.39634     10.54374      8.50569        -0.101117      0.074077      0.367310
O      3.58206     10.54374     12.47271         0.067959      0.052473     -0.281588
O     17.39634     10.43466     12.47271        -0.064024     -0.020524     -0.217209
O     10.43466      8.50569      3.58206        -0.089622      0.706560      0.184204
O     10.54374      8.50569     17.39634        -0.017855      0.606399     -0.192333
O     10.54374     12.47271      3.58206         0.034013     -0.495204      0.105060
O     10.43466     12.47271     17.39634        -0.019565     -0.374495     -0.043691
O      8.50569      3.58206     10.43466         0.589056      0.143872     -0.042299
O      8.50569     17.39634     10.54374         0.579459     -0.177437      0.033772
O     12.47271      3.58206     10.54374        -0.747369      0.156015      0.022946
O     12.47271     17.39634     10.43466        -0.528194     -0.142016     -0.029045
O     11.90042     11.90042     19.56718        -0.305079     -0.248321      0.270275
O     19.56718     19.56718     19.56718         0.302766      0.311776      0.266974
O     19.56718     11.90042     11.90042         0.313703     -0.303447     -0.241800
O     11.90042     19.56718     11.90042        -0.317734      0.329210     -0.225154
O      9.45224      1.03696      9.45224        -0.020102      0.099159     -0.081734
O      1.03696      9.45224      9.45224         0.044536     -0.016786     -0.091825
O      1.03696      1.03696      1.03696         0.032473      0.092219      0.098406
O      9.45224      9.45224      1.03696        -0.051246     -0.025555      0.126438
Zr     10.48920      2.52580     10.48920        -0.175825     -0.313517      0.108009
Zr     10.48920     18.45260     10.48920         0.078152      0.086349     -0.029177
Zr     10.48920     10.48920      2.52580         0.032469      0.063958     -0.375127
Zr     10.48920     10.48920     18.45260         0.016178     -0.052537      0.261809
Zr      2.52580     10.48920     10.48920        -0.082876     -0.122718     -0.020690
Zr     18.45260     10.48920     10.48920         0.095906     -0.008634     -0.049756
Pd     11.86151      8.55406     10.33670         0.007855     -0.034375     -0.066179
Pd      7.20815     10.04503     10.42486         0.056784     -0.090741      0.008164
Pd      7.24826     12.40985     11.76342        -0.020558     -0.078244      0.044906
Pd     12.04530     13.35553      7.39541        -0.063244     -0.020474      0.065719
Pd     11.49337      8.25294      7.55047        -0.013131     -0.055443     -0.018040
Pd      8.79104      7.30665      7.21181         0.022855     -0.044157     -0.007646
Pd     11.64441     10.96888      6.22548        -0.106198      0.111635     -0.014990
Pd     13.77559      9.35778      7.62799        -0.045829      0.003826      0.009704
Pd      9.49514     11.84300      7.50967        -0.042872      0.015682      0.017102
Pd      7.10083      7.65892     11.81204        -0.127454     -0.171150      0.022070
Pd      6.90493      7.66386      8.84880         0.057473     -0.050636      0.060558
Pd      7.50359      9.87890     13.05658         0.015068     -0.018528      0.017033
Pd     11.42793      6.02855      9.15889        -0.010881     -0.025670      0.019430
Pd      9.50246      9.60153      5.98605        -0.027334     -0.052081     -0.015768
Pd      9.33205     14.15040      8.82876        -0.031039     -0.067071      0.066868
Pd     11.48984      6.36352     11.79066         0.001624      0.071525     -0.039426
Pd      9.67039      9.34444      9.01365         0.020569      0.009168     -0.083638
Pd      9.39170     11.74014     10.19230        -0.003340      0.036599      0.099610
Pd      9.32422      7.09863     10.30395         0.019892     -0.020352      0.025610
Pd      9.16521      7.27176     13.29141         0.032624      0.049272      0.128507
Pd      9.56289      9.37942     11.64872        -0.034830      0.028271      0.067078
Pd     11.78748     10.89326      8.84780        -0.025233      0.029480      0.007201
Pd      7.15850     12.46869      8.99425         0.050400     -0.060641     -0.088922
Pd      7.57467      9.95153      7.86821         0.192630      0.093653      0.079763
Pd     13.80989      7.16919      8.95539        -0.035033     -0.032707     -0.065964
Pd     13.81768      7.85967     12.12309        -0.001230     -0.112542      0.001175
Pd      9.45327     11.80938     13.04810         0.011619     -0.144213      0.054902
Pd     14.02993     12.27536      8.77737         0.086180      0.032217     -0.068449
Pd     13.49073     10.43085     12.80861         0.061892     -0.052329      0.038059
Pd     14.06093      9.99763     10.25916        -0.022573      0.055505     -0.033899
Pd     11.54751     11.12520     11.48341        -0.189856     -0.079066     -0.230544
Pd     11.62123     13.42061     10.02018        -0.006875     -0.013479      0.061493
Pd     13.76030     12.63454     11.45196        -0.026823      0.005718      0.001333
Pd     11.69283     13.47775     12.86055         0.042339      0.010624      0.004519
Pd     11.60822     11.32337     14.47642         0.003454     -0.010851     -0.032475
Pd     11.55226      8.73835     13.22461        -0.071009     -0.034236     -0.077246
Pd      9.54610      9.61639     14.75295         0.016236      0.029182      0.040566
Pd      9.41885     14.07252     11.49125        -0.047628      0.018414      0.072334
