14
# total energy = -118.06495882 eVC      2.49875      8.11261     -0.00000        -0.000870     -0.007680      0.000000
C      4.84350      8.11261      0.00000         0.000870     -0.007680      0.000000
C      2.39608      1.43523      0.00000         0.000870      0.007680     -0.000000
C      0.05133      1.43523      0.00000        -0.000870      0.007680      0.000000
C      1.96352      2.81087     -0.00000        -0.008323     -0.049117      0.000000
C      0.48390      2.81087      0.00000         0.008323     -0.049117     -0.000000
C      2.93131      6.73697      0.00000         0.008323      0.049117     -0.000000
C      4.41093      6.73697     -0.00000        -0.008323      0.049117      0.000000
C      1.22371      8.73007     -0.00000        -0.000000      0.012602     -0.000000
C      3.67112      0.81777     -0.00000         0.000000     -0.012602      0.000000
C      1.22371      0.60630     -0.00000         0.000000     -0.004100     -0.000000
C      3.67112      8.94154     -0.00000        -0.000000      0.004100      0.000000
Ir      2.44741      4.77392     -0.00000         0.000000      0.000000      0.000000
Ir     -0.00000      4.77392     -0.00000         0.000000      0.000000      0.000000
