152
# total energy = -1023.36238937 eVH     10.35389      5.87395      7.64558         0.486559      0.083099      0.730427
H     10.62451     15.10445      7.64558        -0.037938     -0.125052      0.678277
H     10.62451      5.87395     13.33282         0.140846      0.150643     -0.623196
H     10.35389     15.10445     13.33282        -0.282451     -0.067695     -0.671035
H      7.64558     10.35389      5.87395         0.300565     -0.020330      0.183379
H      7.64558     10.62451     15.10445         0.885563     -0.344403     -0.026624
H     13.33282     10.62451      5.87395        -0.748596     -0.042609      0.190596
H     13.33282     10.35389     15.10445        -0.597487     -0.170521     -0.015671
H      5.87395      7.64558     10.35389         0.207751      0.903720     -0.148193
H     15.10445      7.64558     10.62451        -0.158262      0.417915     -0.072395
H      5.87395     13.33282     10.62451         0.177736     -0.459919     -0.065934
H     15.10445     13.33282     10.35389        -0.118477     -0.912177      0.080955
H      5.87395     10.35389      7.64558         0.138252      0.103930      0.444031
H     15.10445     10.62451      7.64558         0.101759      0.037966      1.144525
H      5.87395     10.62451     13.33282         0.139220     -0.033458     -0.379847
H     15.10445     10.35389     13.33282        -0.123955     -0.085946     -0.588150
H     10.35389      7.64558      5.87395        -0.021967      0.852501      0.213135
H     10.62451      7.64558     15.10445         0.008703      0.343746     -0.178952
H     10.62451     13.33282      5.87395        -0.018886     -0.553994      0.214257
H     10.35389     13.33282     15.10445        -0.577587     -0.862142     -0.062610
H      7.64558      5.87395     10.35389         0.460358      0.105298      0.021323
H      7.64558     15.10445     10.62451         0.803147     -0.285056      0.045519
H     13.33282      5.87395     10.62451        -0.445917      0.177038     -0.055963
H     13.33282     15.10445     10.35389        -0.622370     -0.084351      0.192890
H     12.45634     12.45634     19.01126         0.247682      0.276090     -0.226568
H     19.01126     19.01126     19.01126        -0.252361     -0.236997     -0.255524
H     19.01126     12.45634     12.45634        -0.241919      0.274678      0.231499
H     12.45634     19.01126     12.45634         0.227161     -0.261872      0.246137
C     10.35284      5.61067      6.59456        -0.213235     -0.456727      0.011796
C     10.62556     15.36773      6.59456         0.049144      0.403433     -0.954883
C     10.62556      5.61067     14.38384        -0.056329     -0.156349      0.762724
C     10.35284     15.36773     14.38384         0.063334      0.817144      0.344713
C      6.59456     10.35284      5.61067        -0.375628     -0.036935     -0.217380
C      6.59456     10.62556     15.36773        -1.052731      0.370600      0.421171
C     14.38384     10.62556      5.61067         0.397584      0.280459     -0.564461
C     14.38384     10.35284     15.36773         0.825958     -0.101520      0.397529
C      5.61067      6.59456     10.35284        -0.327617     -0.576544      0.407768
C     15.36773      6.59456     10.62556         0.163398     -0.509563      0.045992
C      5.61067     14.38384     10.62556        -0.115237      0.446103     -0.008766
C     15.36773     14.38384     10.35284         0.306963     -0.134638     -0.178005
C      5.61067     10.35284      6.59456        -0.264114     -0.024427     -0.784516
C     15.36773     10.62556      6.59456         0.653610     -0.327662     -1.340842
C      5.61067     10.62556     14.38384        -0.468635     -0.015224      0.244537
C     15.36773     10.35284     14.38384         0.601241     -0.139803      1.302385
C     10.35284      6.59456      5.61067        -0.224465     -0.547786     -0.622118
C     10.62556      6.59456     15.36773         0.037147     -0.380346      0.197862
C     10.62556     14.38384      5.61067         0.129543      1.069817     -0.448038
C     10.35284     14.38384     15.36773         0.152704      0.415135      0.703539
C      6.59456      5.61067     10.35284        -0.255574     -0.813198      0.073078
C      6.59456     15.36773     10.62556        -1.344878      0.353867      0.073237
C     14.38384      5.61067     10.62556         0.647903     -0.240016      0.007550
C     14.38384     15.36773     10.35284        -0.448876      0.658308     -0.365580
C     10.40319      3.19606      7.29314         0.017715      0.910518     -0.350967
C     10.35913      4.25547      6.23373         0.010810     -0.450810      0.588406
C      0.08601      7.29314      7.29314        -0.003573     -0.376768     -0.435545
C      0.13007      6.23373      6.23373         0.006136      0.066113      0.137285
C      0.08601      3.19606      3.19606        -0.013870      0.720245      0.179439
C      0.13007      4.25547      4.25547        -0.079796     -0.174791     -0.227076
C     10.40319      7.29314      3.19606         0.004642     -0.819247      0.519980
C     10.35913      6.23373      4.25547         0.013958      0.415393     -0.619683
C      7.29314     10.40319      3.19606        -0.347712      0.036229      0.911137
C      6.23373     10.35913      4.25547         0.203080      0.057392     -0.112789
C      7.29314      0.08601      7.29314        -0.391008     -0.034614     -0.284345
C      6.23373      0.13007      6.23373         0.421923     -0.054137      0.441314
C      3.19606      0.08601      3.19606         0.635544     -0.026325      0.490978
C      4.25547      0.13007      4.25547        -0.094442     -0.049385     -0.405079
C      3.19606     10.40319      7.29314         0.762623     -0.003122     -0.560638
C      4.25547     10.35913      6.23373        -0.197837      0.059483      0.141611
C      3.19606      7.29314     10.40319         0.561351     -1.307269     -0.028268
C      4.25547      6.23373     10.35913        -0.552046      0.843044      0.058793
C      7.29314      7.29314      0.08601        -0.573451     -0.222525     -0.015951
C      6.23373      6.23373      0.13007         0.184578      0.151498     -0.002850
C      3.19606      3.19606      0.08601         0.250157      0.313971     -0.023541
C      4.25547      4.25547      0.13007        -0.064418     -0.043309      0.004256
C      7.29314      3.19606     10.40319        -0.363585      0.775260      0.007574
C      6.23373      4.25547     10.35913         1.059298      0.031414      0.001881
O     10.43466      3.58206      8.50569        -0.043791      0.029084      0.389365
O     10.54374     17.39634      8.50569        -0.025585     -0.130103      0.518588
O     10.54374      3.58206     12.47271         0.048714      0.037686     -0.277058
O     10.43466     17.39634     12.47271        -0.033008     -0.099334     -0.575219
O      8.50569     10.43466      3.58206         0.341815     -0.029463     -0.029291
O      8.50569     10.54374     17.39634         0.509394      0.038726     -0.151587
O     12.47271     10.54374      3.58206        -0.593073     -0.013283      0.153867
O     12.47271     10.43466     17.39634        -0.754049     -0.012668     -0.133603
O      3.58206      8.50569     10.43466         0.156746      1.108734      0.010519
O     17.39634      8.50569     10.54374        -0.041331      0.356547      0.070996
O      3.58206     12.47271     10.54374         0.081926     -0.496367      0.037011
O     17.39634     12.47271     10.43466        -0.159378     -0.745951      0.018811
O      3.58206     10.43466      8.50569        -0.051638     -0.067769      0.430557
O     17.39634     10.54374      8.50569        -0.120983      0.043721      0.426044
O      3.58206     10.54374     12.47271         0.061693      0.001582     -0.491524
O     17.39634     10.43466     12.47271        -0.213276      0.050480     -0.769118
O     10.43466      8.50569      3.58206         0.063091      0.761858      0.192993
O     10.54374      8.50569     17.39634         0.070971      0.542305     -0.099300
O     10.54374     12.47271      3.58206        -0.015817     -0.780033      0.231080
O     10.43466     12.47271     17.39634         0.026318     -0.954776     -0.236632
O      8.50569      3.58206     10.43466         0.509153      0.079091     -0.026049
O      8.50569     17.39634     10.54374         0.637115     -0.236419     -0.034314
O     12.47271      3.58206     10.54374        -0.448676      0.137766      0.045842
O     12.47271     17.39634     10.43466        -0.458909      0.018667     -0.014466
O     11.90042     11.90042     19.56718        -0.273847     -0.325981      0.245235
O     19.56718     19.56718     19.56718         0.287608      0.272527      0.303437
O     19.56718     11.90042     11.90042         0.270415     -0.328606     -0.225941
O     11.90042     19.56718     11.90042        -0.271579      0.284094     -0.265979
O      9.45224      1.03696      9.45224        -0.078779      0.046042     -0.067125
O      1.03696      9.45224      9.45224         0.050962     -0.157686     -0.095040
O      1.03696      1.03696      1.03696         0.015374      0.058541      0.179738
O      9.45224      9.45224      1.03696        -0.053601     -0.087332      0.127788
Zr     10.48920      2.52580     10.48920        -0.029611     -0.077176     -0.070048
Zr     10.48920     18.45260     10.48920         0.092703      0.286050      0.001437
Zr     10.48920     10.48920      2.52580         0.010624     -0.044474     -0.455062
Zr     10.48920     10.48920     18.45260        -0.223900     -0.035516      0.446817
Zr      2.52580     10.48920     10.48920        -0.392417      0.263977      0.047149
Zr     18.45260     10.48920     10.48920         0.226280      0.053236     -0.297303
Pd      8.77523     10.01028     13.38717        -0.040404     -0.348122     -0.204768
Pd     10.56421      9.55732     10.50327         0.250717      0.515061      0.158781
Pd     13.62371      8.61110     12.57449        -0.058627      0.108642     -0.146550
Pd     10.88205     10.75779     15.12075        -0.017313      0.062675     -0.334328
Pd     12.95000     11.22621     13.17459        -0.090022     -0.148425      0.209060
Pd     15.02586     10.82212     11.34921        -0.175077      0.035612     -0.206342
Pd      6.57858      7.82964     12.41554         0.209692      0.075506      0.031489
Pd      9.28772      7.22586      9.74523         0.045343      0.008471     -0.045257
Pd      9.27552      7.46876     12.48677        -0.004834     -0.104394      0.178884
Pd     11.66224      7.30334     11.27211         0.221589     -0.336404      0.127867
Pd     11.73687      7.87011      8.64798        -0.159495     -0.227001      0.048295
Pd      7.35259     11.75383     11.70691        -0.118662     -0.107604     -0.158695
Pd      9.28188     14.61817      9.51553        -0.191974      0.125474      0.009861
Pd      8.16868     12.44691     14.26056         0.001929      0.123566      0.081295
Pd     14.14434     14.23779      8.30423        -0.044624     -0.121441      0.095269
Pd     11.58726     13.56383      8.81519         0.022610     -0.082169     -0.083895
Pd     14.17200     11.64333      8.91111        -0.228624      0.029850      0.037094
Pd      8.76573     13.97388     12.19292        -0.135455     -0.020634     -0.119815
Pd     12.16587     13.66168     14.16901         0.149485     -0.170541     -0.350570
Pd     11.36904     14.26135     11.49228         0.073783     -0.156763     -0.047023
Pd     13.98196     13.50161     12.22476         0.205937      0.241354      0.006319
Pd     12.37602     11.93739     10.74991         0.028714     -0.458819      0.381374
Pd     12.74241     12.56386      6.68697         0.076615     -0.028232     -0.030569
Pd     13.97896      8.94368      7.78831        -0.020215      0.023753      0.051054
Pd      6.97764      8.46469      8.70421         0.014799     -0.102897     -0.205076
Pd      5.65251     10.08122     10.43426        -0.025463      0.075370      0.092453
Pd      9.40613      9.35896      7.84648        -0.039037     -0.043365      0.110208
Pd      8.49544      6.95044      7.16890         0.019063     -0.196237     -0.202772
Pd      9.74557     12.05208     10.45200         0.010024      0.001914     -0.162100
Pd     11.64741     10.69398      8.32503         0.282732      0.385064      0.026623
Pd     11.67112      9.00372      6.23550        -0.019989      0.198981     -0.083009
Pd     10.18017     11.31139      6.21078         0.196636     -0.246214     -0.745468
Ir     11.18059      9.26587     12.98666        -0.205512      0.733044     -0.269774
Ir     13.16956      9.47045     10.17145         0.132184      0.003255      0.064052
Ir     10.45271     12.07976     12.87237         0.370060     -0.394094     -0.179082
Ir      7.74569     10.95585      9.14225        -0.007316     -0.042784      0.083397
Ir      9.07012     12.52936      8.00166         0.059115      0.163897      1.066590
Ir      8.15300      9.26752     10.97644        -0.374453      0.224383     -0.018985
