152
# total energy = -1061.44608978 eVH     10.35389      5.87395      7.64558        -0.203787      0.128472      1.023838
H     10.62451     15.10445      7.64558         0.443746     -0.119037      0.786859
H     10.62451      5.87395     13.33282        -0.089728      0.100906     -0.453089
H     10.35389     15.10445     13.33282         0.086591     -0.192054     -0.405473
H      7.64558     10.35389      5.87395         0.883104      0.201868      0.222508
H      7.64558     10.62451     15.10445         0.210343     -0.023205     -0.070464
H     13.33282     10.62451      5.87395        -0.596201     -0.048659      0.168620
H     13.33282     10.35389     15.10445        -0.323107     -0.054977     -0.076759
H      5.87395      7.64558     10.35389         0.127123      0.362162     -0.078328
H     15.10445      7.64558     10.62451        -0.138001      0.439955      0.176599
H      5.87395     13.33282     10.62451         0.107259     -0.641136      0.126362
H     15.10445     13.33282     10.35389        -0.228979     -0.435192      0.091668
H      5.87395     10.35389      7.64558         0.155367      0.285431      0.388917
H     15.10445     10.62451      7.64558        -0.140226     -0.358962      0.735347
H      5.87395     10.62451     13.33282         0.036316      0.149125     -0.708943
H     15.10445     10.35389     13.33282         0.075209     -0.243364     -0.730002
H     10.35389      7.64558      5.87395        -0.161640      0.447342      0.213603
H     10.62451      7.64558     15.10445         0.369685      0.611209     -0.120144
H     10.62451     13.33282      5.87395         0.071439     -0.556957      0.100390
H     10.35389     13.33282     15.10445         0.259037     -0.712566     -0.090055
H      7.64558      5.87395     10.35389         0.489410      0.145697     -0.156016
H      7.64558     15.10445     10.62451         0.398978     -0.145490      0.446145
H     13.33282      5.87395     10.62451        -0.391327      0.161272     -0.076953
H     13.33282     15.10445     10.35389        -0.583465     -0.293105      0.119629
H     12.45634     12.45634     19.01126         0.230509      0.265744     -0.249119
H     19.01126     19.01126     19.01126        -0.262002     -0.259097     -0.230529
H     19.01126     12.45634     12.45634        -0.234593      0.276273      0.235107
H     12.45634     19.01126     12.45634         0.275782     -0.210567      0.256207
C     10.35284      5.61067      6.59456         0.273700     -0.304312     -0.776814
C     10.62556     15.36773      6.59456        -0.189025      0.635910     -0.304318
C     10.62556      5.61067     14.38384         0.252064     -0.235191      0.488233
C     10.35284     15.36773     14.38384        -0.111935      0.278507      0.285480
C      6.59456     10.35284      5.61067        -0.832086     -0.093973     -0.242261
C      6.59456     10.62556     15.36773        -0.515847      0.046703      0.347964
C     14.38384     10.62556      5.61067         0.784492     -0.031351     -0.629112
C     14.38384     10.35284     15.36773         0.268313     -0.071632      0.348525
C      5.61067      6.59456     10.35284        -0.408845     -0.357513      0.079196
C     15.36773      6.59456     10.62556         0.319281     -0.470402     -0.064794
C      5.61067     14.38384     10.62556        -0.151117      0.483109     -0.415939
C     15.36773     14.38384     10.35284         0.409748      0.823416     -0.096002
C      5.61067     10.35284      6.59456        -0.319152     -0.175000     -0.107571
C     15.36773     10.62556      6.59456         0.209279      0.279668     -0.579009
C      5.61067     10.62556     14.38384        -0.344822     -0.040540      1.214344
C     15.36773     10.35284     14.38384         0.293739     -0.066340      0.989571
C     10.35284      6.59456      5.61067         0.081565     -0.241560     -0.504278
C     10.62556      6.59456     15.36773         0.012907     -0.778708      0.115344
C     10.62556     14.38384      5.61067        -0.383287      0.191412     -0.926944
C     10.35284     14.38384     15.36773        -0.259744      0.832667      0.269308
C      6.59456      5.61067     10.35284        -0.354615     -0.291259      0.258815
C      6.59456     15.36773     10.62556        -0.257588      0.515098     -0.068231
C     14.38384      5.61067     10.62556         0.476101     -0.380705      0.059365
C     14.38384     15.36773     10.35284         0.976504      0.273914     -0.066153
C     10.40319      3.19606      7.29314         0.008150      0.548783     -0.314259
C     10.35913      4.25547      6.23373        -0.012979     -0.524676      0.407941
C      0.08601      7.29314      7.29314        -0.015576     -0.839658     -0.565750
C      0.13007      6.23373      6.23373        -0.193327      0.877845      0.151907
C      0.08601      3.19606      3.19606        -0.009884      0.415453      0.389212
C      0.13007      4.25547      4.25547         0.066920     -0.233475     -0.566578
C     10.40319      7.29314      3.19606        -0.045913     -1.014744      0.789983
C     10.35913      6.23373      4.25547         0.018744      0.334844     -0.233249
C      7.29314     10.40319      3.19606        -1.332478     -0.084971      0.326722
C      6.23373     10.35913      4.25547         0.264041      0.017670     -0.702297
C      7.29314      0.08601      7.29314        -0.829880     -0.002425     -0.409333
C      6.23373      0.13007      6.23373         0.325964      0.052608      0.126238
C      3.19606      0.08601      3.19606         0.320348      0.000044      0.432960
C      4.25547      0.13007      4.25547        -0.284601     -0.032024     -0.176427
C      3.19606     10.40319      7.29314         0.494073     -0.040790     -1.035033
C      4.25547     10.35913      6.23373        -0.324644     -0.076285      0.097086
C      3.19606      7.29314     10.40319         1.079513     -0.443725      0.013136
C      4.25547      6.23373     10.35913        -0.194665      0.167228     -0.000129
C      7.29314      7.29314      0.08601        -0.512803     -0.281144     -0.007441
C      6.23373      6.23373      0.13007         0.165629      0.186337     -0.157895
C      3.19606      3.19606      0.08601         0.357933      0.885332     -0.008595
C      4.25547      4.25547      0.13007        -0.593925     -0.178278      0.037498
C      7.29314      3.19606     10.40319        -0.199264      0.493325      0.026759
C      6.23373      4.25547     10.35913        -0.010944     -0.367856      0.043471
O     10.43466      3.58206      8.50569        -0.023529      0.132816      0.389382
O     10.54374     17.39634      8.50569         0.040784      0.051317      0.368459
O     10.54374      3.58206     12.47271         0.040617      0.194906     -0.575100
O     10.43466     17.39634     12.47271         0.030038     -0.022352     -0.479485
O      8.50569     10.43466      3.58206         0.772607     -0.059643     -0.028951
O      8.50569     10.54374     17.39634         0.854314      0.021935     -0.163030
O     12.47271     10.54374      3.58206        -0.348162      0.035974      0.083253
O     12.47271     10.43466     17.39634        -0.378035     -0.036624      0.039638
O      3.58206      8.50569     10.43466        -0.102663      0.263008     -0.079525
O     17.39634      8.50569     10.54374        -0.103988      0.445572      0.044252
O      3.58206     12.47271     10.54374         0.150657     -0.824862     -0.021875
O     17.39634     12.47271     10.43466        -0.238391     -0.632523     -0.016708
O      3.58206     10.43466      8.50569         0.126091     -0.031910      0.794169
O     17.39634     10.54374      8.50569         0.001945      0.036613      0.338613
O      3.58206     10.54374     12.47271         0.066476      0.018340     -0.458128
O     17.39634     10.43466     12.47271         0.057784      0.012613     -0.239191
O     10.43466      8.50569      3.58206        -0.054710      0.549733     -0.070211
O     10.54374      8.50569     17.39634         0.029008      0.862506     -0.203465
O     10.54374     12.47271      3.58206         0.070409     -0.368554      0.072639
O     10.43466     12.47271     17.39634        -0.055379     -0.642940     -0.198484
O      8.50569      3.58206     10.43466         0.351552      0.083961     -0.052022
O      8.50569     17.39634     10.54374         0.566466     -0.168994     -0.019294
O     12.47271      3.58206     10.54374        -0.367267      0.049099      0.036598
O     12.47271     17.39634     10.43466        -0.829298     -0.143904      0.075333
O     11.90042     11.90042     19.56718        -0.243931     -0.283153      0.237616
O     19.56718     19.56718     19.56718         0.300497      0.292691      0.250288
O     19.56718     11.90042     11.90042         0.228565     -0.305423     -0.275523
O     11.90042     19.56718     11.90042        -0.274806      0.180304     -0.276879
O      9.45224      1.03696      9.45224        -0.107420      0.086121     -0.086090
O      1.03696      9.45224      9.45224         0.121995     -0.150554     -0.174243
O      1.03696      1.03696      1.03696         0.138571      0.209405     -0.002275
O      9.45224      9.45224      1.03696        -0.211917     -0.172382      0.028802
Zr     10.48920      2.52580     10.48920        -0.004704     -0.233054      0.147191
Zr     10.48920     18.45260     10.48920        -0.300059      0.310965     -0.152328
Zr     10.48920     10.48920      2.52580         0.366280      0.386293     -0.229703
Zr     10.48920     10.48920     18.45260        -0.000117      0.021455      0.469149
Zr      2.52580     10.48920     10.48920        -0.559303      0.019670      0.342335
Zr     18.45260     10.48920     10.48920         0.271995     -0.142673      0.001953
Pd      9.22246     14.66732      9.22435         0.004129     -0.003979      0.006696
Pd      8.47165     13.20953     13.82245         0.001877      0.002362      0.009910
Pd     12.14308     14.13099      8.65963         0.005287      0.003125      0.000495
Pd     12.24845     12.75788     10.89406         0.005913     -0.026716      0.016027
Pd     11.77006      7.07567     11.87570         0.000219     -0.000306     -0.003744
Pd     11.18003     15.31283     10.94935        -0.009401     -0.003514      0.005429
Pd      9.60863     13.16662     11.40653        -0.000303     -0.007268     -0.007569
Pd     14.02241     12.40269      7.96897        -0.003898      0.000790      0.003458
Pd     11.57163     11.77755      6.74840        -0.001089     -0.003061      0.007112
Pd      7.41610      8.53174      7.19231         0.006939      0.003171      0.003394
Pd      8.60262     12.10662      6.91561        -0.000320     -0.011118      0.006273
Pd      9.70318      9.91054      7.99724         0.004047      0.012375     -0.013463
Pd      8.47556     14.75541      6.58538         0.001800      0.008353     -0.003141
Pd     12.01054      9.06563      6.83331        -0.000504      0.013588     -0.006442
Pd      9.89749     10.06070      5.40103         0.005073      0.014328      0.009591
Pd      6.89780      9.21822     12.16982        -0.012127      0.002296      0.009659
Pd     12.39768      6.53743      7.65941         0.010031     -0.005098     -0.003941
Pd      5.56599     10.69238     10.10772         0.002694      0.001366      0.012744
Pd      7.56572      6.66325     12.69348        -0.010113     -0.014213      0.008278
Ir     11.27753      9.53563     12.83523        -0.012598     -0.015681     -0.006972
Ir     13.06710      9.23108     11.06983        -0.000925     -0.005045      0.001998
Ir      9.14857      8.42054     13.75357         0.003589     -0.000967      0.017934
Ir     10.27579     10.37260     15.06352        -0.011138     -0.008737      0.004538
Ir      7.10052     11.91043     11.84934        -0.010375      0.007228     -0.021591
Ir     14.40074     11.19040     10.31264        -0.004934     -0.011901      0.008726
Ir     12.26645     10.62786      9.04916        -0.017980      0.014430      0.003857
Ir      8.92261     10.78896     12.89061         0.014389     -0.000487      0.004449
Ir     10.01379     10.29440     10.61053        -0.000301      0.005771      0.000892
Ir     13.29657     11.18971     12.60385         0.002055      0.012720     -0.008819
Ir     11.09405     12.03923     13.31925        -0.008115      0.001499      0.007857
Ir      7.94923     11.74092      9.51179        -0.000763      0.014504      0.018127
Ir     11.26336      8.16256      9.43160         0.006649      0.006212      0.017583
Ir      6.98107     13.61531      8.38949         0.004667      0.003547      0.019022
Ir      9.04540      7.29107      8.79310        -0.010355     -0.004491     -0.008210
Ir      7.72945      9.21997      9.70553        -0.001246     -0.000894     -0.000281
Ir     10.35445     12.34687      8.98033        -0.008692     -0.009116      0.002225
Ir      9.31467      7.90221     11.24868         0.018522     -0.007139     -0.024609
Ir     13.73171      8.47902      8.78151         0.007420      0.003891     -0.001226
