32
# total energy = -234.69240640 eVH      7.29882     -2.19577     -0.00000         0.006832     -0.002270      0.000000
H      0.33054      4.60035     -0.00000        -0.006832      0.002270      0.000000
H      4.72076      5.98403     -0.00000         0.004296      0.005777      0.000000
H      2.90860     -3.57945     -0.00000        -0.004296     -0.005777      0.000000
C      6.12731     -3.80144     -0.00000        -0.006420     -0.020490     -0.000000
C      1.50206      6.20601      0.00000         0.006420      0.020490      0.000000
C      2.84028      6.62779     -0.00000        -0.017009      0.013106      0.000000
C      4.78908     -4.22321      0.00000         0.017009     -0.013106      0.000000
C      6.95911      2.19333     -0.00000         0.024408      0.007693      0.000000
C      4.49197      1.41575      0.00000        -0.005366     -0.001691      0.000000
C      0.67025      0.21125     -0.00000        -0.024408     -0.007693      0.000000
C      3.13740      0.98883     -0.00000         0.005366      0.001691      0.000000
C      5.81894     -5.15694     -0.00000        -0.002467      0.007828      0.000000
C      1.81042      7.56152     -0.00000         0.002467     -0.007828      0.000000
N      4.70464      2.79015     -0.00000        -0.008896     -0.000628      0.000000
N      6.02780      3.18152      0.00000         0.003359      0.003109      0.000000
N      6.33008     -2.49260      0.00000         0.011414      0.002383     -0.000000
N      2.92472     -0.38558     -0.00000         0.008896      0.000628      0.000000
N      1.60157     -0.77695     -0.00000        -0.003359     -0.003109     -0.000000
N      1.29928      4.89718      0.00000        -0.011414     -0.002383     -0.000000
N      5.45428      0.41167     -0.00000        -0.007648     -0.004586      0.000000
N      6.76272      0.84972     -0.00000         0.004535     -0.000621     -0.000000
N      3.75689      5.67175     -0.00000         0.010718      0.004592     -0.000000
N      2.17509      1.99291     -0.00000         0.007648      0.004586      0.000000
N      0.86664      1.55486      0.00000        -0.004535      0.000621     -0.000000
N      3.87247     -3.26717     -0.00000        -0.010718     -0.004592      0.000000
O      1.42110      8.79678     -0.00000        -0.004911      0.015581      0.000000
O      6.20827     -6.39220     -0.00000         0.004911     -0.015581      0.000000
Ir      6.81503     -8.31737     -0.00000         0.004871     -0.015454      0.000000
Ir      0.81433     10.72195     -0.00000        -0.004871      0.015454      0.000000
Ir      2.98810      3.82491     -0.00000        -0.001171      0.003714      0.000000
Ir      4.64126     -1.42033     -0.00000         0.001171     -0.003714      0.000000
