40
# total energy = -344.72572324 eVC      1.20229      4.91823      7.50000         0.012717     -0.046006      0.000000
C     13.92461      3.44503      7.50000        -0.012717      0.046006     -0.000000
C     13.92461      4.91823      7.50000        -0.012717     -0.046006     -0.000000
C      1.20229      3.44503      7.50000         0.012717      0.046006      0.000000
C      8.76574      0.73660      7.50000         0.012717     -0.046006     -0.000000
C      6.36116      7.62666      7.50000        -0.012717      0.046006     -0.000000
C      6.36116      0.73660      7.50000        -0.012717     -0.046006      0.000000
C      8.76574      7.62666      7.50000         0.012717      0.046006      0.000000
C      2.49361      2.76862      7.50000        -0.022217     -0.040498     -0.000000
C     12.63329      5.59464      7.50000         0.022217      0.040498      0.000000
C     12.63329      2.76862      7.50000         0.022217     -0.040498      0.000000
C      2.49361      5.59464      7.50000        -0.022217      0.040498     -0.000000
C     10.05706      6.95025      7.50000        -0.022217     -0.040498     -0.000000
C      5.06984      1.41301      7.50000         0.022217      0.040498      0.000000
C      5.06984      6.95025      7.50000         0.022217     -0.040498      0.000000
C     10.05706      1.41301      7.50000        -0.022217      0.040498     -0.000000
C      3.73142      4.88887      7.50000        -0.029356      0.081712     -0.000000
C     11.39548      3.47439      7.50000         0.029356     -0.081712      0.000000
C     11.39548      4.88887      7.50000         0.029356      0.081712      0.000000
C      3.73142      3.47439      7.50000        -0.029356     -0.081712     -0.000000
C     11.29487      0.70724      7.50000        -0.029356      0.081712      0.000000
C      3.83203      7.65602      7.50000         0.029356     -0.081712      0.000000
C      3.83203      0.70724      7.50000         0.029356      0.081712      0.000000
C     11.29487      7.65602      7.50000        -0.029356     -0.081712     -0.000000
N      2.60175      6.97332      7.50000         0.104948      0.046218     -0.000000
N     12.52515      1.38994      7.50000        -0.104948     -0.046218      0.000000
N     12.52515      6.97332      7.50000        -0.104948      0.046218     -0.000000
N      2.60175      1.38994      7.50000         0.104948     -0.046218      0.000000
N     10.16520      2.79169      7.50000         0.104948      0.046218     -0.000000
N      4.96170      5.57157      7.50000        -0.104948     -0.046218      0.000000
N      4.96170      2.79169      7.50000        -0.104948      0.046218      0.000000
N     10.16520      5.57157      7.50000         0.104948     -0.046218      0.000000
N      7.56345      6.89912      7.50000         0.000000      0.051946      0.000000
N      7.56345      1.46414      7.50000         0.000000     -0.051946     -0.000000
N     -0.00000      2.71749      7.50000         0.000000      0.051946      0.000000
N     -0.00000      5.64577      7.50000         0.000000     -0.051946      0.000000
Zr     14.10430      0.00000      7.50000         0.100155     -0.000000     -0.000000
Zr      1.02260      0.00000      7.50000        -0.100155     -0.000000     -0.000000
Zr      6.54085      4.18163      7.50000         0.100155     -0.000000     -0.000000
Zr      8.58605      4.18163      7.50000        -0.100155     -0.000000     -0.000000
