152
# total energy = -1061.41310358 eVH     10.35389      5.87395      7.64558        -0.132444      0.124080      0.975123
H     10.62451     15.10445      7.64558         0.290684     -0.086412      0.818715
H     10.62451      5.87395     13.33282        -0.132522      0.083991     -0.496348
H     10.35389     15.10445     13.33282         0.081561     -0.202292     -0.404012
H      7.64558     10.35389      5.87395         0.895223      0.125270      0.210803
H      7.64558     10.62451     15.10445         0.200041     -0.013629     -0.063168
H     13.33282     10.62451      5.87395        -0.646340     -0.008978      0.169105
H     13.33282     10.35389     15.10445        -0.323215     -0.072856     -0.058634
H      5.87395      7.64558     10.35389         0.139500      0.356844     -0.051048
H     15.10445      7.64558     10.62451        -0.135218      0.552428      0.232952
H      5.87395     13.33282     10.62451         0.126521     -0.572120      0.054897
H     15.10445     13.33282     10.35389        -0.239785     -0.430383      0.088943
H      5.87395     10.35389      7.64558         0.182324      0.209853      0.367008
H     15.10445     10.62451      7.64558        -0.161533     -0.267137      0.615203
H      5.87395     10.62451     13.33282         0.032202      0.123690     -0.714404
H     15.10445     10.35389     13.33282         0.084541     -0.267877     -0.716500
H     10.35389      7.64558      5.87395        -0.100573      0.434061      0.243835
H     10.62451      7.64558     15.10445         0.416333      0.670683     -0.103327
H     10.62451     13.33282      5.87395         0.196555     -0.584549      0.112092
H     10.35389     13.33282     15.10445         0.192464     -0.726914     -0.072962
H      7.64558      5.87395     10.35389         0.453696      0.155374     -0.098576
H      7.64558     15.10445     10.62451         0.439331     -0.166057      0.374086
H     13.33282      5.87395     10.62451        -0.372108      0.155810     -0.063956
H     13.33282     15.10445     10.35389        -0.556182     -0.261268      0.128807
H     12.45634     12.45634     19.01126         0.236343      0.264647     -0.243955
H     19.01126     19.01126     19.01126        -0.259557     -0.263373     -0.226778
H     19.01126     12.45634     12.45634        -0.232284      0.270498      0.241607
H     12.45634     19.01126     12.45634         0.281966     -0.210560      0.251256
C     10.35284      5.61067      6.59456         0.292335     -0.287711     -0.853416
C     10.62556     15.36773      6.59456        -0.214434      0.643452     -0.313155
C     10.62556      5.61067     14.38384         0.272654     -0.325663      0.514038
C     10.35284     15.36773     14.38384        -0.122755      0.265142      0.287758
C      6.59456     10.35284      5.61067        -0.848867     -0.133960     -0.213849
C      6.59456     10.62556     15.36773        -0.551957      0.053429      0.349293
C     14.38384     10.62556      5.61067         0.899124     -0.034316     -0.592141
C     14.38384     10.35284     15.36773         0.271482     -0.089120      0.370108
C      5.61067      6.59456     10.35284        -0.381870     -0.409406      0.051952
C     15.36773      6.59456     10.62556         0.280655     -0.642365     -0.124304
C      5.61067     14.38384     10.62556        -0.164016      0.539766     -0.304208
C     15.36773     14.38384     10.35284         0.398728      0.813158     -0.107474
C      5.61067     10.35284      6.59456        -0.273694     -0.133532     -0.148394
C     15.36773     10.62556      6.59456         0.221142      0.237323     -0.496405
C      5.61067     10.62556     14.38384        -0.350504     -0.023792      1.219197
C     15.36773     10.35284     14.38384         0.295426     -0.053387      0.984661
C     10.35284      6.59456      5.61067         0.062741     -0.299595     -0.454355
C     10.62556      6.59456     15.36773        -0.019425     -0.863042      0.232896
C     10.62556     14.38384      5.61067        -0.405012      0.035182     -0.818716
C     10.35284     14.38384     15.36773        -0.238641      0.911281      0.234024
C      6.59456      5.61067     10.35284        -0.381275     -0.277508      0.209459
C      6.59456     15.36773     10.62556        -0.481839      0.564014      0.010440
C     14.38384      5.61067     10.62556         0.429401     -0.327855      0.064946
C     14.38384     15.36773     10.35284         0.880774      0.271321     -0.061794
C     10.40319      3.19606      7.29314         0.002776      0.575301     -0.313490
C     10.35913      4.25547      6.23373        -0.000628     -0.491368      0.431956
C      0.08601      7.29314      7.29314        -0.015973     -0.899196     -0.504061
C      0.13007      6.23373      6.23373        -0.158597      0.865102      0.152103
C      0.08601      3.19606      3.19606        -0.013659      0.367385      0.380167
C      0.13007      4.25547      4.25547         0.058614     -0.179161     -0.629593
C     10.40319      7.29314      3.19606        -0.048398     -1.104220      0.811661
C     10.35913      6.23373      4.25547         0.011929      0.337126     -0.190441
C      7.29314     10.40319      3.19606        -1.153740     -0.076616      0.352823
C      6.23373     10.35913      4.25547         0.272958      0.028067     -0.640866
C      7.29314      0.08601      7.29314        -0.918037     -0.003782     -0.414933
C      6.23373      0.13007      6.23373         0.266707      0.040554      0.126473
C      3.19606      0.08601      3.19606         0.325755     -0.002855      0.405114
C      4.25547      0.13007      4.25547        -0.282610     -0.044054     -0.169658
C      3.19606     10.40319      7.29314         0.498269     -0.046266     -1.030658
C      4.25547     10.35913      6.23373        -0.293299     -0.057550      0.112740
C      3.19606      7.29314     10.40319         0.970949     -0.497324      0.006686
C      4.25547      6.23373     10.35913        -0.151352      0.164857      0.000211
C      7.29314      7.29314      0.08601        -0.433629     -0.279008     -0.006046
C      6.23373      6.23373      0.13007         0.233282      0.084098     -0.138640
C      3.19606      3.19606      0.08601         0.340642      0.750884     -0.009767
C      4.25547      4.25547      0.13007        -0.431521     -0.203355      0.049209
C      7.29314      3.19606     10.40319        -0.206003      0.551660      0.021123
C      6.23373      4.25547     10.35913         0.023824     -0.299054      0.027377
O     10.43466      3.58206      8.50569        -0.022221      0.130873      0.364909
O     10.54374     17.39634      8.50569         0.053547      0.062437      0.307357
O     10.54374      3.58206     12.47271         0.042117      0.202596     -0.571342
O     10.43466     17.39634     12.47271         0.029054     -0.003336     -0.441613
O      8.50569     10.43466      3.58206         0.744795     -0.071291      0.045931
O      8.50569     10.54374     17.39634         0.897775      0.023987     -0.160274
O     12.47271     10.54374      3.58206        -0.343586      0.042248      0.069126
O     12.47271     10.43466     17.39634        -0.368879     -0.032236      0.052101
O      3.58206      8.50569     10.43466        -0.064871      0.343206     -0.079680
O     17.39634      8.50569     10.54374        -0.113307      0.439056      0.036317
O      3.58206     12.47271     10.54374         0.134514     -0.749646     -0.011360
O     17.39634     12.47271     10.43466        -0.250934     -0.664238     -0.013262
O      3.58206     10.43466      8.50569         0.128308     -0.040672      0.805884
O     17.39634     10.54374      8.50569         0.030311      0.044205      0.299897
O      3.58206     10.54374     12.47271         0.071873      0.017755     -0.458617
O     17.39634     10.43466     12.47271         0.009963      0.018664     -0.293632
O     10.43466      8.50569      3.58206        -0.065880      0.587866     -0.078046
O     10.54374      8.50569     17.39634         0.020975      0.905670     -0.210744
O     10.54374     12.47271      3.58206         0.062004     -0.361403      0.087161
O     10.43466     12.47271     17.39634        -0.059585     -0.646084     -0.198016
O      8.50569      3.58206     10.43466         0.335434      0.067344     -0.052167
O      8.50569     17.39634     10.54374         0.514665     -0.138626      0.005658
O     12.47271      3.58206     10.54374        -0.388567      0.077765      0.031285
O     12.47271     17.39634     10.43466        -0.756106     -0.109170      0.060659
O     11.90042     11.90042     19.56718        -0.249820     -0.281173      0.233187
O     19.56718     19.56718     19.56718         0.291704      0.299714      0.244273
O     19.56718     11.90042     11.90042         0.230832     -0.299051     -0.284890
O     11.90042     19.56718     11.90042        -0.278225      0.179092     -0.262583
O      9.45224      1.03696      9.45224        -0.120439      0.107820     -0.082955
O      1.03696      9.45224      9.45224         0.146868     -0.135654     -0.169264
O      1.03696      1.03696      1.03696         0.136363      0.201516     -0.005746
O      9.45224      9.45224      1.03696        -0.214759     -0.161003      0.048190
Zr     10.48920      2.52580     10.48920         0.016495     -0.242945      0.166024
Zr     10.48920     18.45260     10.48920        -0.281678      0.266631     -0.207578
Zr     10.48920     10.48920      2.52580         0.301807      0.438677     -0.221760
Zr     10.48920     10.48920     18.45260         0.036929     -0.002404      0.500952
Zr      2.52580     10.48920     10.48920        -0.553852      0.060960      0.336795
Zr     18.45260     10.48920     10.48920         0.276296     -0.167708      0.025439
Pd      9.09692     14.52893      9.20578         0.091463     -0.033120      0.013297
Pd      8.39634     13.24867     13.78047         0.017261     -0.033300      0.026158
Pd     12.04915     14.16678      8.70949         0.069888      0.020574     -0.057636
Pd     12.29752     12.76608     10.89603        -0.070504     -0.067120      0.051464
Pd     11.84074      7.08867     12.02750        -0.029923      0.023893     -0.042630
Pd     11.05792     15.32312     10.93234        -0.000305     -0.062334     -0.001090
Pd      9.63465     13.10172     11.42971         0.047244      0.041538     -0.023660
Pd     13.99937     12.44986      8.10254        -0.009024      0.006347      0.049923
Pd     11.63613     11.73786      6.79576        -0.014463      0.020686     -0.001367
Pd      7.54655      8.51692      7.22783        -0.008886     -0.000141      0.016941
Pd      8.69115     11.98008      6.90798         0.020519      0.017563      0.011002
Pd      9.82290      9.84363      8.04092         0.018437     -0.043463      0.034256
Pd      8.48497     14.62350      6.54582         0.002421      0.001567      0.054102
Pd     12.14883      9.04817      6.90085        -0.035827      0.032828      0.033275
Pd     10.00497      9.97477      5.42298        -0.008398     -0.002421      0.029073
Pd      6.94038      9.17980     12.20869        -0.034785     -0.022395     -0.012403
Pd     12.44833      6.53852      7.75159        -0.036673     -0.054452      0.009064
Pd      5.60713     10.60289     10.08890        -0.008231     -0.003033     -0.003790
Pd      7.64958      6.64196     12.81753        -0.056072     -0.014538     -0.051223
Ir     11.29923      9.56922     12.91999        -0.003950     -0.002085      0.022180
Ir     13.10652      9.23321     11.18964         0.054764      0.014748     -0.049190
Ir      9.16907      8.44149     13.83311         0.019550      0.043893      0.001782
Ir     10.25532     10.39229     15.14424         0.071322      0.037527     -0.043571
Ir      7.10431     11.85396     11.83700        -0.067854      0.079036      0.016352
Ir     14.49537     11.13402     10.40500        -0.103873      0.011063     -0.008432
Ir     12.34428     10.60148      9.14383        -0.079505      0.037734     -0.065490
Ir      8.92874     10.80230     12.94854         0.014833      0.046453     -0.061138
Ir     10.05201     10.27943     10.68191         0.008645      0.003155     -0.022620
Ir     13.30012     11.24833     12.66176         0.012408      0.034657     -0.010850
Ir     11.09834     12.05522     13.41410         0.043152     -0.014187     -0.054293
Ir      7.97607     11.69207      9.52415         0.052028     -0.004097     -0.021166
Ir     11.35333      8.13908      9.55146        -0.005546     -0.011127     -0.034926
Ir      6.92213     13.42071      8.25258         0.074397      0.021792     -0.019490
Ir      9.14892      7.26081      8.87720        -0.028169     -0.021306     -0.101819
Ir      7.80834      9.17539      9.75051        -0.020280      0.049811     -0.014413
Ir     10.39185     12.28248      9.00552        -0.019037      0.025747     -0.021089
Ir      9.37403      7.88576     11.33300         0.017264     -0.016043     -0.016358
Ir     13.81769      8.46757      8.88942        -0.100166      0.016240      0.011342
