152
# total energy = -1093.15696158 eVH     10.35389      5.87395      7.64558        -0.043879     -0.116798      1.173750
H     10.62451     15.10445      7.64558        -0.168170      0.083805      1.379133
H     10.62451      5.87395     13.33282         0.148169     -0.036918     -1.067558
H     10.35389     15.10445     13.33282         0.020428     -0.053069     -0.880063
H      7.64558     10.35389      5.87395         0.529369      0.023870     -0.101096
H      7.64558     10.62451     15.10445         0.402220     -0.002136      0.006511
H     13.33282     10.62451      5.87395        -0.670594     -0.034869      0.001390
H     13.33282     10.35389     15.10445        -0.427661     -0.013550     -0.018383
H      5.87395      7.64558     10.35389        -0.142876      1.335243      0.050753
H     15.10445      7.64558     10.62451        -0.018955      0.444024      0.030657
H      5.87395     13.33282     10.62451        -0.078119     -0.225325      0.043979
H     15.10445     13.33282     10.35389         0.183374     -1.515824      0.097488
H      5.87395     10.35389      7.64558        -0.084981     -0.775311      0.494084
H     15.10445     10.62451      7.64558         0.451472      0.803983      0.227675
H      5.87395     10.62451     13.33282        -0.002723     -0.175589     -0.267703
H     15.10445     10.35389     13.33282        -0.066937      0.230328     -0.186339
H     10.35389      7.64558      5.87395        -0.114945      0.423762      0.099144
H     10.62451      7.64558     15.10445         0.053605      0.504166      0.279689
H     10.62451     13.33282      5.87395         0.092806     -0.410835     -0.194457
H     10.35389     13.33282     15.10445        -0.137135     -0.565689      0.174250
H      7.64558      5.87395     10.35389         0.491918     -0.036959     -0.049664
H      7.64558     15.10445     10.62451         0.301049      0.029364     -0.028369
H     13.33282      5.87395     10.62451        -0.196299     -0.081979     -0.007301
H     13.33282     15.10445     10.35389        -0.502223      0.089480     -0.018532
H     12.45634     12.45634     19.01126         0.265227      0.247881     -0.245040
H     19.01126     19.01126     19.01126        -0.263153     -0.242590     -0.252188
H     19.01126     12.45634     12.45634        -0.265567      0.261702      0.232940
H     12.45634     19.01126     12.45634         0.275191     -0.255278      0.226243
C     10.35284      5.61067      6.59456        -0.144880     -0.315142     -1.782674
C     10.62556     15.36773      6.59456         0.425887      0.132643     -1.854777
C     10.62556      5.61067     14.38384        -0.346046     -0.126447      1.708647
C     10.35284     15.36773     14.38384         0.225315      0.148158      1.626554
C      6.59456     10.35284      5.61067        -0.938222     -0.120778     -0.323480
C      6.59456     10.62556     15.36773        -0.827172     -0.007152      0.119605
C     14.38384     10.62556      5.61067         1.034382      0.042740     -0.238067
C     14.38384     10.35284     15.36773         0.769841     -0.024454      0.170008
C      5.61067      6.59456     10.35284        -0.100217     -1.665079      0.069593
C     15.36773      6.59456     10.62556         0.319810     -0.908400      0.037148
C      5.61067     14.38384     10.62556        -0.423354      0.802276      0.044191
C     15.36773     14.38384     10.35284         0.060729      1.805007     -0.071482
C      5.61067     10.35284      6.59456        -0.770201      0.295239     -1.844763
C     15.36773     10.62556      6.59456         0.732760     -0.213884     -1.930375
C      5.61067     10.62556     14.38384        -0.671917      0.090234      1.607842
C     15.36773     10.35284     14.38384         0.557171     -0.058969      1.395724
C     10.35284      6.59456      5.61067         0.028309     -1.539056     -0.745244
C     10.62556      6.59456     15.36773        -0.050071     -1.910903      0.696597
C     10.62556     14.38384      5.61067         0.087126      1.827867     -0.852334
C     10.35284     14.38384     15.36773         0.035503      1.850629      0.614309
C      6.59456      5.61067     10.35284        -0.890390     -0.810947     -0.034132
C      6.59456     15.36773     10.62556        -1.025876      0.572910      0.073584
C     14.38384      5.61067     10.62556         0.951005     -0.680641      0.088785
C     14.38384     15.36773     10.35284         0.878953      0.875304     -0.004413
C     10.40319      3.19606      7.29314        -0.004876      0.528072     -0.578420
C     10.35913      4.25547      6.23373        -0.008905     -0.828514      0.536767
C      0.08601      7.29314      7.29314         0.014196     -0.462454     -0.572284
C      0.13007      6.23373      6.23373         0.059638      0.846503      0.448539
C      0.08601      3.19606      3.19606         0.027800      0.690378      0.461903
C      0.13007      4.25547      4.25547        -0.041015     -0.735405     -0.483779
C     10.40319      7.29314      3.19606        -0.017633     -0.820300      0.480638
C     10.35913      6.23373      4.25547         0.009220      0.562903     -0.510535
C      7.29314     10.40319      3.19606        -0.314926     -0.006559      0.498639
C      6.23373     10.35913      4.25547         0.188307     -0.078655     -0.148023
C      7.29314      0.08601      7.29314        -0.254122     -0.031314     -0.379466
C      6.23373      0.13007      6.23373         0.155893     -0.095600      0.371257
C      3.19606      0.08601      3.19606         0.421614      0.013514      0.483454
C      4.25547      0.13007      4.25547        -0.207131      0.069892     -0.196138
C      3.19606     10.40319      7.29314         0.220063      0.034421     -0.508063
C      4.25547     10.35913      6.23373        -0.188909      0.105715      0.341541
C      3.19606      7.29314     10.40319         0.170475     -0.318500      0.009630
C      4.25547      6.23373     10.35913        -0.571186      0.174415      0.053152
C      7.29314      7.29314      0.08601        -0.587204     -0.466120      0.003444
C      6.23373      6.23373      0.13007         0.119980      0.192447     -0.058074
C      3.19606      3.19606      0.08601         0.558191      0.462964      0.004982
C      4.25547      4.25547      0.13007        -0.067671     -0.101290     -0.036214
C      7.29314      3.19606     10.40319        -0.218297      0.335522      0.011139
C      6.23373      4.25547     10.35913         0.592232     -0.247342      0.018052
O     10.43466      3.58206      8.50569         0.016394      0.237951      0.499413
O     10.54374     17.39634      8.50569        -0.028774     -0.239491      0.516354
O     10.54374      3.58206     12.47271         0.081036      0.159555     -0.396277
O     10.43466     17.39634     12.47271        -0.101052     -0.117023     -0.353943
O      8.50569     10.43466      3.58206         0.413484     -0.021828      0.075545
O      8.50569     10.54374     17.39634         0.470611      0.059469     -0.124885
O     12.47271     10.54374      3.58206        -0.501832     -0.009821      0.093395
O     12.47271     10.43466     17.39634        -0.415931     -0.054133     -0.103013
O      3.58206      8.50569     10.43466         0.165240      0.424270     -0.056100
O     17.39634      8.50569     10.54374        -0.089021      0.563672      0.048591
O      3.58206     12.47271     10.54374         0.048594     -0.534056      0.038828
O     17.39634     12.47271     10.43466        -0.173799     -0.453317     -0.025215
O      3.58206     10.43466      8.50569         0.188624     -0.014435      0.493780
O     17.39634     10.54374      8.50569        -0.123737     -0.009305      0.458753
O      3.58206     10.54374     12.47271         0.178759      0.088896     -0.484984
O     17.39634     10.43466     12.47271        -0.191008     -0.081480     -0.526444
O     10.43466      8.50569      3.58206         0.047231      0.664185      0.270683
O     10.54374      8.50569     17.39634         0.057137      0.489533     -0.210280
O     10.54374     12.47271      3.58206        -0.019490     -0.633019      0.267619
O     10.43466     12.47271     17.39634        -0.033421     -0.525842     -0.219078
O      8.50569      3.58206     10.43466         0.516867      0.151694     -0.030887
O      8.50569     17.39634     10.54374         0.622108     -0.095765      0.045442
O     12.47271      3.58206     10.54374        -0.625670      0.101976      0.035441
O     12.47271     17.39634     10.43466        -0.483977     -0.138253     -0.017145
O     11.90042     11.90042     19.56718        -0.307060     -0.283767      0.271076
O     19.56718     19.56718     19.56718         0.315705      0.270385      0.290387
O     19.56718     11.90042     11.90042         0.324315     -0.307362     -0.235699
O     11.90042     19.56718     11.90042        -0.328635      0.280940     -0.223647
O      9.45224      1.03696      9.45224        -0.030654      0.060886     -0.065531
O      1.03696      9.45224      9.45224         0.037194     -0.079796     -0.058640
O      1.03696      1.03696      1.03696         0.034311      0.051511      0.131172
O      9.45224      9.45224      1.03696        -0.024130     -0.089273      0.134651
Zr     10.48920      2.52580     10.48920        -0.107076     -0.130675     -0.011574
Zr     10.48920     18.45260     10.48920         0.109711      0.188722     -0.102285
Zr     10.48920     10.48920      2.52580        -0.009152      0.111556     -0.320600
Zr     10.48920     10.48920     18.45260        -0.034698     -0.015066      0.145239
Zr      2.52580     10.48920     10.48920        -0.049365     -0.029459     -0.049559
Zr     18.45260     10.48920     10.48920         0.089531      0.109901     -0.143720
Pd     12.91085      8.09396      7.61081        -0.008301     -0.011434     -0.009535
Pd      9.57422     14.56832     11.75310         0.003871     -0.004913      0.006657
Pd     12.30344     10.86476     10.41689        -0.009248      0.018780     -0.000888
Pd     14.63348      9.94774     11.58478        -0.010788      0.005067     -0.007502
Pd     10.91785      9.33382      6.10650        -0.015896     -0.007703     -0.001553
Pd      6.88736      8.54905      8.97282        -0.019142     -0.011404      0.007427
Ir     10.24198     11.84010     11.75243         0.018893      0.000298     -0.021756
Ir     12.87529      8.26101     10.28979        -0.002151     -0.013575      0.005392
Ir     12.28133     10.96923      7.71532        -0.011881      0.013253     -0.004232
Ir      9.68089     14.38600      9.16086         0.014058      0.000707      0.008969
Ir     10.76356      9.16678     11.69852        -0.001795      0.034266     -0.038456
Ir      8.66328     10.08403      7.74980         0.012310      0.012458      0.003759
Ir     13.85341     12.48790      9.04548        -0.004549      0.003047     -0.017182
Ir     11.96402     13.55314      7.82307         0.001297     -0.008599      0.001048
Ir     14.27370      9.87772      9.00590         0.009192     -0.004147     -0.009541
Ir      9.16551      7.44079     10.35784        -0.004476     -0.005565     -0.000590
Ir      8.15081     12.77003      7.83004         0.006919     -0.005067      0.016663
Ir      9.10897      7.60892      7.79404        -0.003870     -0.005416      0.011140
Ir     11.85920     13.48418     13.02566         0.011606     -0.000578     -0.012682
Ir     11.34190      6.66865     11.68033         0.009811     -0.009668      0.004971
Ir     10.22918     11.81447      9.07482        -0.005183     -0.004001     -0.018683
Ir     12.85703      8.29733     12.94864         0.016413     -0.001635      0.000379
Ir     10.78353      9.15236      8.96106        -0.011754      0.001045     -0.006099
Ir     11.78840     13.56832     10.41856         0.002617     -0.013080     -0.005172
Ir     13.82809     12.56798     11.77663        -0.011220      0.009483      0.003502
Ir     12.35486     10.95802     13.07929         0.009199      0.007224     -0.013992
Ir     10.10164     11.72292      6.48752        -0.009951      0.002348      0.009754
Ir     11.27879      6.57082      9.18121        -0.006153     -0.001232      0.003916
Ir      7.16258      8.36747     11.78826        -0.019606      0.000721     -0.017097
Ir      8.16533     12.71113     10.43108         0.005759     -0.002951     -0.017445
Ir     10.85104      9.25211     14.25587        -0.006473      0.002887      0.015433
Ir      8.07094     12.53417     12.98414         0.000425      0.009146      0.007201
Ir      6.54126     11.28428      9.05814         0.008459      0.022024     -0.008489
Ir      8.62791     10.04370     13.03987        -0.012334      0.003098      0.009614
Ir      6.55023     10.91685     11.51957        -0.016931      0.006174      0.012431
Ir      9.09958      7.46357     13.02294        -0.006043     -0.015126      0.015151
Ir     10.17756     11.64798     14.35556         0.003677      0.001550      0.001229
Ir      8.68758     10.06495     10.38896         0.020082     -0.000154     -0.014590
