152
# total energy = -1061.44578173 eVH     10.35389      5.87395      7.64558        -0.202664      0.128223      1.022613
H     10.62451     15.10445      7.64558         0.443912     -0.119474      0.786738
H     10.62451      5.87395     13.33282        -0.089315      0.101010     -0.453062
H     10.35389     15.10445     13.33282         0.086455     -0.192434     -0.405786
H      7.64558     10.35389      5.87395         0.883616      0.202089      0.222298
H      7.64558     10.62451     15.10445         0.210603     -0.023363     -0.070374
H     13.33282     10.62451      5.87395        -0.596099     -0.048386      0.168678
H     13.33282     10.35389     15.10445        -0.322851     -0.054993     -0.076910
H      5.87395      7.64558     10.35389         0.127177      0.362269     -0.078382
H     15.10445      7.64558     10.62451        -0.137786      0.439221      0.176068
H      5.87395     13.33282     10.62451         0.107634     -0.641678      0.126460
H     15.10445     13.33282     10.35389        -0.228830     -0.435357      0.091519
H      5.87395     10.35389      7.64558         0.155223      0.285864      0.388971
H     15.10445     10.62451      7.64558        -0.140031     -0.358602      0.734920
H      5.87395     10.62451     13.33282         0.036368      0.148797     -0.709528
H     15.10445     10.35389     13.33282         0.075064     -0.242975     -0.729684
H     10.35389      7.64558      5.87395        -0.161541      0.447319      0.213327
H     10.62451      7.64558     15.10445         0.369654      0.610795     -0.120420
H     10.62451     13.33282      5.87395         0.070120     -0.557147      0.099978
H     10.35389     13.33282     15.10445         0.259212     -0.712845     -0.090288
H      7.64558      5.87395     10.35389         0.489693      0.145581     -0.156179
H      7.64558     15.10445     10.62451         0.399242     -0.145501      0.446919
H     13.33282      5.87395     10.62451        -0.391335      0.161198     -0.077252
H     13.33282     15.10445     10.35389        -0.583663     -0.293069      0.119843
H     12.45634     12.45634     19.01126         0.230711      0.265620     -0.249270
H     19.01126     19.01126     19.01126        -0.261834     -0.259204     -0.230671
H     19.01126     12.45634     12.45634        -0.234412      0.276160      0.234941
H     12.45634     19.01126     12.45634         0.275940     -0.210697      0.256083
C     10.35284      5.61067      6.59456         0.273580     -0.303957     -0.775800
C     10.62556     15.36773      6.59456        -0.188968      0.635463     -0.305500
C     10.62556      5.61067     14.38384         0.252157     -0.234943      0.487883
C     10.35284     15.36773     14.38384        -0.111742      0.278841      0.286448
C      6.59456     10.35284      5.61067        -0.831888     -0.093825     -0.242565
C      6.59456     10.62556     15.36773        -0.515891      0.046668      0.348350
C     14.38384     10.62556      5.61067         0.784412     -0.031361     -0.628851
C     14.38384     10.35284     15.36773         0.268552     -0.071716      0.348483
C      5.61067      6.59456     10.35284        -0.408629     -0.358024      0.078894
C     15.36773      6.59456     10.62556         0.320001     -0.469399     -0.064434
C      5.61067     14.38384     10.62556        -0.151203      0.482155     -0.416800
C     15.36773     14.38384     10.35284         0.409619      0.821899     -0.096038
C      5.61067     10.35284      6.59456        -0.319535     -0.175190     -0.107359
C     15.36773     10.62556      6.59456         0.209312      0.279300     -0.579007
C      5.61067     10.62556     14.38384        -0.345104     -0.040741      1.214912
C     15.36773     10.35284     14.38384         0.294357     -0.066623      0.988910
C     10.35284      6.59456      5.61067         0.081824     -0.241233     -0.503770
C     10.62556      6.59456     15.36773         0.013249     -0.777896      0.114661
C     10.62556     14.38384      5.61067        -0.383137      0.192697     -0.927190
C     10.35284     14.38384     15.36773        -0.259446      0.832749      0.269202
C      6.59456      5.61067     10.35284        -0.354287     -0.291330      0.258482
C      6.59456     15.36773     10.62556        -0.256362      0.514712     -0.068944
C     14.38384      5.61067     10.62556         0.476626     -0.381322      0.059152
C     14.38384     15.36773     10.35284         0.977133      0.274080     -0.066475
C     10.40319      3.19606      7.29314         0.008271      0.548357     -0.314009
C     10.35913      4.25547      6.23373        -0.012762     -0.524272      0.407631
C      0.08601      7.29314      7.29314        -0.015306     -0.839411     -0.566052
C      0.13007      6.23373      6.23373        -0.193251      0.877648      0.151563
C      0.08601      3.19606      3.19606        -0.009658      0.415441      0.389051
C      0.13007      4.25547      4.25547         0.067147     -0.233923     -0.566235
C     10.40319      7.29314      3.19606        -0.045658     -1.012981      0.790441
C     10.35913      6.23373      4.25547         0.019005      0.334229     -0.233355
C      7.29314     10.40319      3.19606        -1.332941     -0.085089      0.326931
C      6.23373     10.35913      4.25547         0.263957      0.017413     -0.702758
C      7.29314      0.08601      7.29314        -0.829802     -0.002558     -0.409354
C      6.23373      0.13007      6.23373         0.325960      0.052484      0.126186
C      3.19606      0.08601      3.19606         0.320269     -0.000103      0.433298
C      4.25547      0.13007      4.25547        -0.284568     -0.032063     -0.176349
C      3.19606     10.40319      7.29314         0.494072     -0.040874     -1.034790
C      4.25547     10.35913      6.23373        -0.324657     -0.076530      0.096857
C      3.19606      7.29314     10.40319         1.078688     -0.443842      0.013064
C      4.25547      6.23373     10.35913        -0.194408      0.167415     -0.000322
C      7.29314      7.29314      0.08601        -0.513438     -0.281187     -0.007500
C      6.23373      6.23373      0.13007         0.165111      0.187357     -0.158164
C      3.19606      3.19606      0.08601         0.358199      0.885713     -0.008686
C      4.25547      4.25547      0.13007        -0.594941     -0.177930      0.037444
C      7.29314      3.19606     10.40319        -0.199148      0.493061      0.026567
C      6.23373      4.25547     10.35913        -0.010695     -0.367758      0.043263
O     10.43466      3.58206      8.50569        -0.023329      0.132900      0.389024
O     10.54374     17.39634      8.50569         0.041149      0.051458      0.368470
O     10.54374      3.58206     12.47271         0.040800      0.194862     -0.575181
O     10.43466     17.39634     12.47271         0.030235     -0.022502     -0.480277
O      8.50569     10.43466      3.58206         0.773095     -0.059910     -0.029392
O      8.50569     10.54374     17.39634         0.854630      0.021804     -0.163335
O     12.47271     10.54374      3.58206        -0.347862      0.035766      0.083098
O     12.47271     10.43466     17.39634        -0.377832     -0.036691      0.039393
O      3.58206      8.50569     10.43466        -0.101971      0.263491     -0.079758
O     17.39634      8.50569     10.54374        -0.103765      0.445444      0.044188
O      3.58206     12.47271     10.54374         0.151012     -0.825472     -0.022026
O     17.39634     12.47271     10.43466        -0.238078     -0.632400     -0.016955
O      3.58206     10.43466      8.50569         0.126756     -0.032009      0.794194
O     17.39634     10.54374      8.50569         0.002214      0.036628      0.338184
O      3.58206     10.54374     12.47271         0.066768      0.018253     -0.458558
O     17.39634     10.43466     12.47271         0.058119      0.012508     -0.239409
O     10.43466      8.50569      3.58206        -0.054509      0.548717     -0.069813
O     10.54374      8.50569     17.39634         0.029211      0.862372     -0.203814
O     10.54374     12.47271      3.58206         0.070676     -0.368520      0.072255
O     10.43466     12.47271     17.39634        -0.055166     -0.642764     -0.198645
O      8.50569      3.58206     10.43466         0.351818      0.083988     -0.052191
O      8.50569     17.39634     10.54374         0.567007     -0.168932     -0.019423
O     12.47271      3.58206     10.54374        -0.367158      0.048955      0.036408
O     12.47271     17.39634     10.43466        -0.828180     -0.143994      0.075339
O     11.90042     11.90042     19.56718        -0.243712     -0.283215      0.237501
O     19.56718     19.56718     19.56718         0.300727      0.292654      0.250189
O     19.56718     11.90042     11.90042         0.228742     -0.305445     -0.275703
O     11.90042     19.56718     11.90042        -0.274600      0.180240     -0.277065
O      9.45224      1.03696      9.45224        -0.107250      0.086129     -0.086221
O      1.03696      9.45224      9.45224         0.122190     -0.150801     -0.174188
O      1.03696      1.03696      1.03696         0.138892      0.209342     -0.002528
O      9.45224      9.45224      1.03696        -0.211611     -0.172650      0.028503
Zr     10.48920      2.52580     10.48920        -0.004513     -0.233208      0.146915
Zr     10.48920     18.45260     10.48920        -0.299348      0.310971     -0.152391
Zr     10.48920     10.48920      2.52580         0.366498      0.385537     -0.229630
Zr     10.48920     10.48920     18.45260         0.000382      0.021534      0.468712
Zr      2.52580     10.48920     10.48920        -0.559419      0.019528      0.341737
Zr     18.45260     10.48920     10.48920         0.271890     -0.142601      0.001863
Pd      9.22290     14.66819      9.22473         0.005713     -0.002515      0.008703
Pd      8.47139     13.20912     13.82278         0.001308      0.002898      0.013025
Pd     12.14270     14.13168      8.66038         0.005273      0.004430      0.000405
Pd     12.24842     12.75782     10.89401         0.006100     -0.030370      0.017208
Pd     11.76980      7.07530     11.87497        -0.000777     -0.003601     -0.005075
Pd     11.17993     15.31235     10.95069        -0.008402     -0.002690      0.009741
Pd      9.60812     13.16636     11.40690        -0.002791     -0.008751     -0.009099
Pd     14.02201     12.40258      7.96960        -0.003757      0.003141      0.004375
Pd     11.57153     11.77854      6.74861        -0.001615     -0.002805      0.007941
Pd      7.41555      8.53216      7.19235         0.007779      0.003314      0.008178
Pd      8.60123     12.10724      6.91633        -0.002087     -0.011569      0.005055
Pd      9.70266      9.91061      7.99763         0.000969      0.016367     -0.018930
Pd      8.47530     14.75613      6.58573         0.003562      0.011427     -0.003713
Pd     12.01007      9.06608      6.83287        -0.002986      0.016092     -0.007679
Pd      9.89728     10.06192      5.40110         0.004018      0.018489      0.011924
Pd      6.89744      9.21758     12.17022        -0.012653      0.002330      0.009010
Pd     12.39827      6.53794      7.65929         0.011338     -0.006693     -0.007011
Pd      5.56608     10.69233     10.10826        -0.000928      0.000006      0.014030
Pd      7.56602      6.66277     12.69333        -0.009524     -0.017065      0.007023
Ir     11.27724      9.53546     12.83492        -0.021972     -0.016316     -0.002099
Ir     13.06641      9.23057     11.06989         0.001365     -0.001850      0.000313
Ir      9.14805      8.42031     13.75337         0.007251      0.001316      0.020055
Ir     10.27541     10.37244     15.06356        -0.012075     -0.010423     -0.000568
Ir      7.09980     11.91059     11.85022        -0.010049      0.005454     -0.028081
Ir     14.40080     11.18941     10.31257        -0.007619     -0.014407      0.011123
Ir     12.26580     10.62781      9.04908        -0.019501      0.017333      0.005611
Ir      8.92183     10.78868     12.89058         0.020854     -0.003428      0.006815
Ir     10.01329     10.29468     10.61044        -0.003360      0.005930      0.002706
Ir     13.29604     11.18920     12.60398         0.003894      0.012802     -0.012097
Ir     11.09368     12.03904     13.31928        -0.010808     -0.001431      0.008184
Ir      7.94877     11.74096      9.51205        -0.004752      0.025342      0.019681
Ir     11.26302      8.16257      9.43086         0.004814      0.005841      0.020123
Ir      6.98102     13.61694      8.39018         0.006405     -0.003815      0.027682
Ir      9.04518      7.29124      8.79306        -0.014669     -0.002850     -0.008994
Ir      7.72926      9.21997      9.70603        -0.000455     -0.000945     -0.000962
Ir     10.35404     12.34725      8.98026        -0.011621     -0.008312      0.004601
Ir      9.31471      7.90238     11.24862         0.018522     -0.008592     -0.024592
Ir     13.73119      8.47974      8.78140         0.014390      0.003925     -0.002991
