152
# total energy = -1004.55989680 eVH     10.35389      5.87395      7.64558        -0.115212      0.104707      0.675180
H     10.62451     15.10445      7.64558        -0.087841     -0.185918      0.526677
H     10.62451      5.87395     13.33282         0.405394      0.016978     -0.867077
H     10.35389     15.10445     13.33282         0.047371     -0.168858     -0.496972
H      7.64558     10.35389      5.87395         0.359680      0.042373      0.151666
H      7.64558     10.62451     15.10445         0.972398      0.631617      0.016156
H     13.33282     10.62451      5.87395        -0.477127      0.158327      0.132536
H     13.33282     10.35389     15.10445        -0.831996     -0.245305      0.035541
H      5.87395      7.64558     10.35389         0.236364      1.747673      0.196404
H     15.10445      7.64558     10.62451        -0.091331      0.513372      0.255844
H      5.87395     13.33282     10.62451         0.194926     -0.564149     -0.012801
H     15.10445     13.33282     10.35389         0.135160     -1.244042     -0.449829
H      5.87395     10.35389      7.64558         0.146187      0.044207      0.488789
H     15.10445     10.62451      7.64558        -0.203462      0.770358      1.244609
H      5.87395     10.62451     13.33282         0.005502      0.509255     -1.176810
H     15.10445     10.35389     13.33282         0.038046     -0.196378     -0.790447
H     10.35389      7.64558      5.87395         0.186391      1.337410      0.095409
H     10.62451      7.64558     15.10445         0.523763      0.766592     -0.101569
H     10.62451     13.33282      5.87395        -0.372964     -0.679138      0.312744
H     10.35389     13.33282     15.10445        -0.260977     -0.485322     -0.331362
H      7.64558      5.87395     10.35389         1.143355     -0.205494     -0.084586
H      7.64558     15.10445     10.62451         0.834483     -0.189617     -0.010889
H     13.33282      5.87395     10.62451        -0.590529      0.131263      0.634718
H     13.33282     15.10445     10.35389        -0.572647     -0.029495     -0.256965
H     12.45634     12.45634     19.01126         0.266832      0.258409     -0.229592
H     19.01126     19.01126     19.01126        -0.271532     -0.260626     -0.222543
H     19.01126     12.45634     12.45634        -0.278193      0.257530      0.224598
H     12.45634     19.01126     12.45634         0.240726     -0.279085      0.245963
C     10.35284      5.61067      6.59456        -0.169260     -0.815351     -0.353216
C     10.62556     15.36773      6.59456         0.041471      0.229675     -0.352050
C     10.62556      5.61067     14.38384        -0.031659     -0.407469      0.586591
C     10.35284     15.36773     14.38384         0.004561      0.269995      0.497707
C      6.59456     10.35284      5.61067        -0.452344      0.041358     -0.294914
C      6.59456     10.62556     15.36773        -0.919885      0.152050      0.692083
C     14.38384     10.62556      5.61067         0.574590     -0.040178     -0.883942
C     14.38384     10.35284     15.36773         0.934675     -0.117078      0.331104
C      5.61067      6.59456     10.35284        -0.881155     -0.886188     -0.410017
C     15.36773      6.59456     10.62556         0.687062     -0.019799     -0.260459
C      5.61067     14.38384     10.62556        -0.240035      0.615505      0.012789
C     15.36773     14.38384     10.35284         0.323119      1.205224      0.083245
C      5.61067     10.35284      6.59456        -0.275437      0.017185     -0.712758
C     15.36773     10.62556      6.59456         0.546122     -0.264459     -0.712332
C      5.61067     10.62556     14.38384        -0.534122     -0.016885      0.744549
C     15.36773     10.35284     14.38384         0.506898     -0.086487      1.064019
C     10.35284      6.59456      5.61067        -0.060608     -0.918306     -0.387795
C     10.62556      6.59456     15.36773         0.134699     -0.794762      0.498332
C     10.62556     14.38384      5.61067         0.102879      1.125326     -0.298499
C     10.35284     14.38384     15.36773        -0.027246      1.084538      0.519138
C      6.59456      5.61067     10.35284        -0.482416     -1.244018      0.104728
C      6.59456     15.36773     10.62556        -0.997983      0.188832      0.101387
C     14.38384      5.61067     10.62556        -0.144728     -0.474820     -0.306137
C     14.38384     15.36773     10.35284         0.291047      0.551472     -0.054629
C     10.40319      3.19606      7.29314         0.012262      0.905729     -0.514565
C     10.35913      4.25547      6.23373         0.049128     -0.555369      0.132134
C      0.08601      7.29314      7.29314        -0.028588     -0.983994     -0.207435
C      0.13007      6.23373      6.23373        -0.097514      0.293299      0.318809
C      0.08601      3.19606      3.19606         0.053138      1.362170      0.149590
C      0.13007      4.25547      4.25547        -0.036120     -0.363217     -0.353806
C     10.40319      7.29314      3.19606        -0.001771     -0.478376      0.269928
C     10.35913      6.23373      4.25547        -0.011786      0.108952     -0.754587
C      7.29314     10.40319      3.19606        -0.286080      0.018757      0.541755
C      6.23373     10.35913      4.25547         0.204731      0.086588     -0.112037
C      7.29314      0.08601      7.29314        -1.022976     -0.100879     -0.367032
C      6.23373      0.13007      6.23373         0.697370     -0.200870      0.459055
C      3.19606      0.08601      3.19606         1.248777     -0.018169      0.451044
C      4.25547      0.13007      4.25547        -0.681823     -0.181245     -0.315393
C      3.19606     10.40319      7.29314         0.570983      0.020898     -0.382737
C      4.25547     10.35913      6.23373        -0.233537      0.105225      0.225569
C      3.19606      7.29314     10.40319         0.345947     -0.907147      0.034404
C      4.25547      6.23373     10.35913        -1.111449      0.154463      0.185010
C      7.29314      7.29314      0.08601        -0.475251     -0.504559     -0.014923
C      6.23373      6.23373      0.13007         0.488842      0.321560      0.007410
C      3.19606      3.19606      0.08601         0.524013      0.406040     -0.025632
C      4.25547      4.25547      0.13007        -0.034454     -0.722453     -0.093998
C      7.29314      3.19606     10.40319        -0.399013      0.506492      0.055650
C      6.23373      4.25547     10.35913         0.553136     -0.702802      0.223552
O     10.43466      3.58206      8.50569        -0.005652      0.068095      0.480302
O     10.54374     17.39634      8.50569         0.057210     -0.020546      0.255600
O     10.54374      3.58206     12.47271        -0.002421     -0.097905     -0.111748
O     10.43466     17.39634     12.47271        -0.037543     -0.136797     -0.488710
O      8.50569     10.43466      3.58206         0.351264     -0.024273      0.039076
O      8.50569     10.54374     17.39634         0.850391     -0.051172     -0.154106
O     12.47271     10.54374      3.58206        -0.890261      0.100123      0.046337
O     12.47271     10.43466     17.39634        -0.585194      0.023866     -0.142947
O      3.58206      8.50569     10.43466         0.191491      0.907972     -0.018370
O     17.39634      8.50569     10.54374        -0.151030      0.674990      0.044440
O      3.58206     12.47271     10.54374         0.104361     -0.544256      0.051810
O     17.39634     12.47271     10.43466        -0.166377     -0.603363     -0.034099
O      3.58206     10.43466      8.50569         0.077387     -0.062718      0.468567
O     17.39634     10.54374      8.50569         0.019997      0.096602      0.399559
O      3.58206     10.54374     12.47271        -0.031978      0.027056     -0.353785
O     17.39634     10.43466     12.47271        -0.212521     -0.033813     -0.673310
O     10.43466      8.50569      3.58206        -0.034888      0.565613      0.158950
O     10.54374      8.50569     17.39634        -0.088784      0.792093     -0.225935
O     10.54374     12.47271      3.58206         0.080885     -0.943256      0.107880
O     10.43466     12.47271     17.39634         0.072920     -0.756192     -0.197600
O      8.50569      3.58206     10.43466         0.570649      0.143170     -0.048211
O      8.50569     17.39634     10.54374         0.552998     -0.150492      0.000432
O     12.47271      3.58206     10.54374        -0.686006      0.152941      0.021363
O     12.47271     17.39634     10.43466        -0.412122     -0.043952     -0.035663
O     11.90042     11.90042     19.56718        -0.315140     -0.294392      0.237605
O     19.56718     19.56718     19.56718         0.309284      0.305190      0.216920
O     19.56718     11.90042     11.90042         0.330129     -0.270065     -0.232142
O     11.90042     19.56718     11.90042        -0.258284      0.341887     -0.270134
O      9.45224      1.03696      9.45224        -0.019774      0.080721     -0.132020
O      1.03696      9.45224      9.45224         0.067889     -0.043107     -0.138927
O      1.03696      1.03696      1.03696         0.086915      0.118952      0.073196
O      9.45224      9.45224      1.03696        -0.070726     -0.061216      0.055090
Zr     10.48920      2.52580     10.48920        -0.050662     -0.206450      0.022666
Zr     10.48920     18.45260     10.48920        -0.015787      0.088790      0.182646
Zr     10.48920     10.48920      2.52580        -0.275031     -0.431838     -0.314947
Zr     10.48920     10.48920     18.45260         0.065938      0.031659      0.431300
Zr      2.52580     10.48920     10.48920        -0.223826      0.119071      0.025934
Zr     18.45260     10.48920     10.48920         0.178643     -0.012257     -0.018488
Pd     13.07804      8.54975      9.77334         0.057438     -0.013682     -0.063979
Pd      6.14732      9.66681     10.20071        -0.044676     -0.017709     -0.015416
Pd      6.96924     11.59694     11.77172        -0.006252      0.026496     -0.006078
Pd     12.34001     13.16713      7.34853        -0.057087      0.018852      0.068023
Pd     12.12753      7.78863      7.05977        -0.009198     -0.042339      0.007710
Pd      8.47221      7.26872      6.90339        -0.007196     -0.033427     -0.006757
Pd     11.30061     11.40284      5.55504        -0.020187      0.038008      0.076393
Pd     14.53880      8.75753      7.50673         0.027340      0.023954     -0.069189
Pd      9.93431     11.82088      7.98138        -0.049140     -0.039488      0.053932
Pd      7.01941      7.11393     12.04779        -0.010837     -0.089188      0.053851
Pd      6.34527      7.49070      8.41797         0.014539     -0.005907     -0.016501
Pd      7.21565      9.09957     13.71263        -0.026236      0.030046     -0.078104
Pd     11.44589      6.37794      9.21845         0.025322      0.043626      0.021151
Pd      9.98234      9.48006      6.64542        -0.040710      0.012908      0.021638
Pd      9.04212     14.02137      9.35209         0.081391     -0.066518     -0.015578
Pd     10.84216      7.46640     11.45236        -0.005123     -0.026432      0.008463
Pd     10.48275      9.12239      9.31043        -0.000755     -0.001485      0.007844
Pd      9.50275     11.52646     10.58576        -0.027546      0.010830      0.048647
Pd      8.87249      7.10738      9.59327         0.004825      0.021230     -0.067167
Pd      9.19608      7.42962     13.47533        -0.065114     -0.019284     -0.033666
Pd      8.56251      9.20524     11.32634        -0.009146     -0.007937      0.031908
Pd     12.26992     10.40969      7.85319         0.041257     -0.031751     -0.052336
Pd      7.31407     11.97569      9.14948        -0.035677     -0.026204     -0.014098
Pd      8.07185      9.57833      8.41404         0.040126      0.010908      0.054037
Pd     14.03255      6.36722      8.50510        -0.005424      0.007174     -0.025135
Pd     13.12024      8.49946     12.40741        -0.004246      0.037957     -0.037876
Pd      8.97851     11.43410     13.39396        -0.031625      0.064449     -0.042815
Pd     13.88117     11.99296      9.12208         0.019310      0.071125     -0.018277
Pd     13.15291     11.17487     13.19188        -0.021687     -0.067330      0.012402
Pd     14.69932     10.36706     11.07432        -0.012499     -0.027352     -0.075549
Pd     12.05358     10.79664     10.72306        -0.015634     -0.024208     -0.002274
Pd     11.51613     13.32289      9.84216         0.019631     -0.072611     -0.015781
Pd     13.63177     13.17268     11.60773        -0.041151     -0.045440      0.001794
Pd     11.13317     12.78964     12.42754         0.037608     -0.035000      0.039924
Pd     11.20245     11.59488     14.89637        -0.044640     -0.067392      0.003840
Pd     10.85816      9.73757     12.82432        -0.002339     -0.007088      0.081018
Pd      9.55046      9.52007     15.20782         0.012363     -0.008006     -0.020324
Pd      8.71272     13.72613     11.99920        -0.062345     -0.015608      0.029715
