152
# total energy = -1093.15418511 eVH     10.35389      5.87395      7.64558        -0.002480     -0.121923      1.217329
H     10.62451     15.10445      7.64558        -0.192956      0.082373      1.398830
H     10.62451      5.87395     13.33282         0.144515     -0.038019     -1.077755
H     10.35389     15.10445     13.33282         0.024480     -0.043632     -0.880863
H      7.64558     10.35389      5.87395         0.519383      0.024469     -0.090090
H      7.64558     10.62451     15.10445         0.402770     -0.001949      0.005537
H     13.33282     10.62451      5.87395        -0.669530     -0.035576      0.003163
H     13.33282     10.35389     15.10445        -0.430234     -0.011956     -0.014474
H      5.87395      7.64558     10.35389        -0.142692      1.345020      0.053640
H     15.10445      7.64558     10.62451        -0.015623      0.455959      0.032821
H      5.87395     13.33282     10.62451        -0.074549     -0.227095      0.039717
H     15.10445     13.33282     10.35389         0.193654     -1.536571      0.111377
H      5.87395     10.35389      7.64558        -0.087566     -0.741271      0.492716
H     15.10445     10.62451      7.64558         0.449689      0.805513      0.194629
H      5.87395     10.62451     13.33282        -0.011801     -0.184961     -0.267762
H     15.10445     10.35389     13.33282        -0.060126      0.234261     -0.165536
H     10.35389      7.64558      5.87395        -0.121071      0.434054      0.072937
H     10.62451      7.64558     15.10445         0.049086      0.504315      0.281936
H     10.62451     13.33282      5.87395         0.075133     -0.420445     -0.195482
H     10.35389     13.33282     15.10445        -0.142486     -0.557253      0.178771
H      7.64558      5.87395     10.35389         0.483721     -0.032864     -0.047561
H      7.64558     15.10445     10.62451         0.300232      0.028787     -0.027741
H     13.33282      5.87395     10.62451        -0.198320     -0.086021     -0.007692
H     13.33282     15.10445     10.35389        -0.505682      0.097112     -0.018923
H     12.45634     12.45634     19.01126         0.265286      0.247413     -0.244752
H     19.01126     19.01126     19.01126        -0.263025     -0.242945     -0.251995
H     19.01126     12.45634     12.45634        -0.265258      0.261854      0.232909
H     12.45634     19.01126     12.45634         0.274345     -0.255250      0.226320
C     10.35284      5.61067      6.59456        -0.161885     -0.310452     -1.782517
C     10.62556     15.36773      6.59456         0.439573      0.120890     -1.861442
C     10.62556      5.61067     14.38384        -0.339306     -0.128172      1.699726
C     10.35284     15.36773     14.38384         0.235919      0.150817      1.639744
C      6.59456     10.35284      5.61067        -0.919035     -0.115301     -0.315899
C      6.59456     10.62556     15.36773        -0.826300     -0.008070      0.115798
C     14.38384     10.62556      5.61067         1.031726      0.039578     -0.230288
C     14.38384     10.35284     15.36773         0.774772     -0.021686      0.170021
C      5.61067      6.59456     10.35284        -0.088794     -1.652827      0.062666
C     15.36773      6.59456     10.62556         0.311397     -0.919223      0.037900
C      5.61067     14.38384     10.62556        -0.415827      0.791866      0.040468
C     15.36773     14.38384     10.35284         0.052906      1.813658     -0.078994
C      5.61067     10.35284      6.59456        -0.750092      0.274206     -1.831123
C     15.36773     10.62556      6.59456         0.746967     -0.210257     -1.946542
C      5.61067     10.62556     14.38384        -0.675227      0.092589      1.627677
C     15.36773     10.35284     14.38384         0.569091     -0.061785      1.417138
C     10.35284      6.59456      5.61067         0.026522     -1.552244     -0.760246
C     10.62556      6.59456     15.36773        -0.047431     -1.911757      0.707256
C     10.62556     14.38384      5.61067         0.084347      1.820498     -0.849634
C     10.35284     14.38384     15.36773         0.035012      1.853068      0.626965
C      6.59456      5.61067     10.35284        -0.865317     -0.813227     -0.031649
C      6.59456     15.36773     10.62556        -1.026007      0.569647      0.070007
C     14.38384      5.61067     10.62556         0.968115     -0.697788      0.090294
C     14.38384     15.36773     10.35284         0.884623      0.890546     -0.000243
C     10.40319      3.19606      7.29314        -0.005824      0.533306     -0.573336
C     10.35913      4.25547      6.23373        -0.011379     -0.837484      0.534464
C      0.08601      7.29314      7.29314         0.014903     -0.464328     -0.572492
C      0.13007      6.23373      6.23373         0.057903      0.853980      0.450986
C      0.08601      3.19606      3.19606         0.026099      0.684606      0.454820
C      0.13007      4.25547      4.25547        -0.042966     -0.733422     -0.482003
C     10.40319      7.29314      3.19606        -0.015683     -0.791009      0.478448
C     10.35913      6.23373      4.25547         0.009368      0.569775     -0.509970
C      7.29314     10.40319      3.19606        -0.310084     -0.006680      0.505829
C      6.23373     10.35913      4.25547         0.184843     -0.077941     -0.153360
C      7.29314      0.08601      7.29314        -0.251141     -0.030973     -0.387158
C      6.23373      0.13007      6.23373         0.153566     -0.096175      0.371541
C      3.19606      0.08601      3.19606         0.415168      0.012800      0.471986
C      4.25547      0.13007      4.25547        -0.203021      0.069850     -0.203771
C      3.19606     10.40319      7.29314         0.224600      0.032265     -0.497168
C      4.25547     10.35913      6.23373        -0.183551      0.106462      0.349594
C      3.19606      7.29314     10.40319         0.173053     -0.316495      0.007383
C      4.25547      6.23373     10.35913        -0.575988      0.180465      0.052558
C      7.29314      7.29314      0.08601        -0.585324     -0.465731      0.002798
C      6.23373      6.23373      0.13007         0.119511      0.198469     -0.058635
C      3.19606      3.19606      0.08601         0.561013      0.453500      0.004328
C      4.25547      4.25547      0.13007        -0.066314     -0.100694     -0.034672
C      7.29314      3.19606     10.40319        -0.216785      0.341109      0.008321
C      6.23373      4.25547     10.35913         0.600201     -0.251070      0.017232
O     10.43466      3.58206      8.50569         0.016183      0.237100      0.494959
O     10.54374     17.39634      8.50569        -0.029034     -0.239977      0.515126
O     10.54374      3.58206     12.47271         0.080892      0.159396     -0.391890
O     10.43466     17.39634     12.47271        -0.101642     -0.124433     -0.357236
O      8.50569     10.43466      3.58206         0.412807     -0.021379      0.075455
O      8.50569     10.54374     17.39634         0.464581      0.059650     -0.122852
O     12.47271     10.54374      3.58206        -0.503559     -0.010204      0.100383
O     12.47271     10.43466     17.39634        -0.420110     -0.053158     -0.105827
O      3.58206      8.50569     10.43466         0.167300      0.423717     -0.054547
O     17.39634      8.50569     10.54374        -0.088898      0.563770      0.047298
O      3.58206     12.47271     10.54374         0.047638     -0.530158      0.040106
O     17.39634     12.47271     10.43466        -0.175151     -0.455412     -0.024495
O      3.58206     10.43466      8.50569         0.186452     -0.015925      0.489830
O     17.39634     10.54374      8.50569        -0.126387     -0.010382      0.459806
O      3.58206     10.54374     12.47271         0.177239      0.088220     -0.475313
O     17.39634     10.43466     12.47271        -0.191341     -0.080346     -0.529298
O     10.43466      8.50569      3.58206         0.048276      0.651992      0.271600
O     10.54374      8.50569     17.39634         0.056982      0.490151     -0.210992
O     10.54374     12.47271      3.58206        -0.018286     -0.635260      0.269323
O     10.43466     12.47271     17.39634        -0.032940     -0.528426     -0.220402
O      8.50569      3.58206     10.43466         0.516081      0.151446     -0.030759
O      8.50569     17.39634     10.54374         0.620491     -0.096304      0.044161
O     12.47271      3.58206     10.54374        -0.628618      0.104583      0.033371
O     12.47271     17.39634     10.43466        -0.486129     -0.139359     -0.017498
O     11.90042     11.90042     19.56718        -0.308565     -0.283654      0.270471
O     19.56718     19.56718     19.56718         0.314422      0.271209      0.289132
O     19.56718     11.90042     11.90042         0.322941     -0.308056     -0.236535
O     11.90042     19.56718     11.90042        -0.328814      0.281687     -0.224851
O      9.45224      1.03696      9.45224        -0.032826      0.059938     -0.066514
O      1.03696      9.45224      9.45224         0.035103     -0.079615     -0.059974
O      1.03696      1.03696      1.03696         0.032446      0.051098      0.130938
O      9.45224      9.45224      1.03696        -0.025711     -0.087100      0.133252
Zr     10.48920      2.52580     10.48920        -0.105461     -0.129004     -0.009078
Zr     10.48920     18.45260     10.48920         0.111471      0.187185     -0.098851
Zr     10.48920     10.48920      2.52580        -0.009030      0.104242     -0.322028
Zr     10.48920     10.48920     18.45260        -0.029541     -0.016661      0.146385
Zr      2.52580     10.48920     10.48920        -0.045054     -0.028520     -0.051636
Zr     18.45260     10.48920     10.48920         0.094250      0.108246     -0.139162
Pd     12.93867      8.08788      7.62195        -0.026326      0.013736      0.008873
Pd      9.57492     14.56629     11.76032        -0.006014      0.010063     -0.013673
Pd     12.31270     10.87409     10.42327         0.012034     -0.001911     -0.023279
Pd     14.63670      9.96395     11.59195         0.018635     -0.003715     -0.026910
Pd     10.93475      9.32448      6.13318        -0.005524     -0.005552     -0.018544
Pd      6.90478      8.53076      8.97068        -0.019255      0.000754      0.006880
Ir     10.24946     11.84041     11.75628        -0.020500      0.028334      0.001369
Ir     12.88972      8.26806     10.29602        -0.005303      0.013976      0.008546
Ir     12.29151     10.97999      7.72310        -0.006108     -0.009609      0.002806
Ir      9.68418     14.38642      9.16875         0.006986     -0.001353     -0.019401
Ir     10.77362      9.17374     11.70105         0.013119     -0.009812      0.017251
Ir      8.67722     10.07335      7.75294        -0.013785      0.010363     -0.005957
Ir     13.85812     12.50096      9.04646        -0.000062      0.001976      0.002911
Ir     11.96279     13.56248      7.82594         0.016983     -0.010531     -0.007455
Ir     14.28762      9.89076      9.01499        -0.018269     -0.008134      0.003051
Ir      9.18500      7.43827     10.36513        -0.014534     -0.003759      0.003467
Ir      8.15482     12.75539      7.83805        -0.003628      0.020216     -0.012739
Ir      9.13230      7.59877      7.79943        -0.018061      0.013511      0.003428
Ir     11.85969     13.49278     13.03266         0.007247      0.004544     -0.006651
Ir     11.36207      6.67665     11.69059        -0.005234      0.005505      0.002005
Ir     10.23516     11.81490      9.07871        -0.006956      0.013426      0.001614
Ir     12.87096      8.30862     12.95725        -0.008760     -0.021429     -0.000715
Ir     10.79937      9.15429      8.96762         0.008421     -0.014047      0.007383
Ir     11.79328     13.57179     10.42399        -0.019508      0.006484     -0.018622
Ir     13.83126     12.58418     11.78623        -0.004593      0.010028     -0.006905
Ir     12.36026     10.96898     13.08459         0.002900     -0.032117      0.013006
Ir     10.11061     11.71874      6.49478         0.010404      0.012299     -0.025997
Ir     11.29838      6.57159      9.18785        -0.028593      0.013597      0.010816
Ir      7.17179      8.36846     11.78478         0.004945      0.000422      0.000938
Ir      8.17190     12.71241     10.43703        -0.002170     -0.019015      0.000340
Ir     10.85886      9.25311     14.26115         0.006605      0.026268     -0.022107
Ir      8.08035     12.53953     12.99436        -0.001525     -0.002882     -0.021842
Ir      6.55474     11.26498      9.07215         0.004105      0.004278     -0.003101
Ir      8.63305     10.04708     13.04310         0.013837     -0.019537      0.007928
Ir      6.56136     10.92226     11.53369         0.002177     -0.013460     -0.012519
Ir      9.10996      7.46936     13.02796        -0.004843     -0.019439     -0.019800
Ir     10.18377     11.64659     14.36436         0.004474     -0.000283     -0.016817
Ir      8.69739     10.06220     10.39025        -0.028591      0.003954      0.011752
