38
# total energy = -161.95569414 eVPd     11.49947      8.66214     10.14213        -0.005557      0.007178     -0.001430
Pd      6.93677     10.23740     10.17046        -0.032453      0.000460      0.000886
Pd      7.13244     12.62533     11.41597        -0.118381      0.075294      0.054811
Pd     11.45227     13.22030      7.25664         0.026432      0.113456     -0.097955
Pd     11.49107      8.47515      7.31951         0.012629     -0.017390     -0.025487
Pd      9.23564      7.01029      7.55835        -0.030847     -0.122021     -0.086638
Pd     11.41904     10.83382      6.00763         0.026466      0.015823     -0.147549
Pd     13.64346     10.10558      7.34038         0.118048     -0.015962     -0.093716
Pd      9.19092     11.74479      7.23144        -0.011324      0.014009     -0.026916
Pd      7.12102      7.96072     11.61051        -0.117884     -0.082058      0.041490
Pd      7.06654      7.84955      8.91604        -0.122151     -0.085723     -0.028318
Pd      7.15430     10.34709     12.85962        -0.118048      0.015962      0.093716
Pd     11.46305      6.28077      8.89307         0.028499     -0.138425     -0.050958
Pd      9.21327      9.28547      6.11708        -0.031600     -0.026484     -0.147017
Pd      9.27955     14.06096      8.61645        -0.029251      0.134208     -0.060869
Pd     11.51822      6.39172     11.58357         0.029251     -0.134208      0.060869
Pd      9.26509      9.39384      8.80328         0.006004      0.002961      0.009392
Pd      9.29829     11.79053     10.05787         0.005557     -0.007178      0.001430
Pd      9.23725      6.96771     10.25836        -0.012406     -0.028092      0.001100
Pd      9.34549      7.23237     12.94337        -0.026432     -0.113456      0.097955
Pd      9.32040      9.50506     11.50635         0.004305      0.003150     -0.009085
Pd     11.47737     10.94762      8.69368        -0.004305     -0.003150      0.009085
Pd      7.07733     12.51414      8.72545        -0.120484      0.071988     -0.055559
Pd      7.04432     10.12484      7.47482        -0.123732      0.009208     -0.091110
Pd     13.66532      7.82736      8.78404         0.118381     -0.075294     -0.054811
Pd     13.72045      7.93854     11.47457         0.120484     -0.071988      0.055559
Pd      9.30669     11.97753     12.88049        -0.012629      0.017390      0.025487
Pd     13.67674     12.49197      8.58950         0.117884      0.082058     -0.041490
Pd     13.75344     10.32783     12.72518         0.123732     -0.009208      0.091110
Pd     13.86101     10.21529     10.02955         0.032453     -0.000460     -0.000886
Pd     11.53267     11.05883     11.39675        -0.006004     -0.002961     -0.009392
Pd     11.56051     13.48498      9.94165         0.012406      0.028092     -0.001100
Pd     13.73122     12.60313     11.28397         0.122151      0.085723      0.028318
Pd     11.56213     13.44239     12.64166         0.030847      0.122021      0.086638
Pd     11.58449     11.16721     14.08293         0.031600      0.026484      0.147017
Pd     11.60683      8.70788     12.96856         0.011324     -0.014009      0.026916
Pd      9.37872      9.61886     14.19239        -0.026466     -0.015823      0.147549
Pd      9.33471     14.17192     11.30695        -0.028499      0.138425      0.050958
