152
# total energy = -1060.15171741 eVH     10.35389      5.87395      7.64558        -0.319076      0.100993      1.089288
H     10.62451     15.10445      7.64558         0.079694     -0.070070      0.899240
H     10.62451      5.87395     13.33282        -0.268850      0.073081     -0.783159
H     10.35389     15.10445     13.33282         0.092286     -0.303357     -0.822478
H      7.64558     10.35389      5.87395         0.894635     -0.201531      0.206780
H      7.64558     10.62451     15.10445         0.315911     -0.028500     -0.061983
H     13.33282     10.62451      5.87395        -0.886166      0.220781      0.221379
H     13.33282     10.35389     15.10445        -0.282062     -0.029275     -0.060893
H      5.87395      7.64558     10.35389         0.093064      0.421574     -0.012660
H     15.10445      7.64558     10.62451        -0.041669      0.437745     -0.030968
H      5.87395     13.33282     10.62451        -0.017552     -0.968871      0.078502
H     15.10445     13.33282     10.35389        -0.082489     -0.326985      0.001665
H      5.87395     10.35389      7.64558         0.318656      0.062250      0.370420
H     15.10445     10.62451      7.64558        -0.120462     -0.159120      0.667406
H      5.87395     10.62451     13.33282        -0.063286      0.453162     -0.599405
H     15.10445     10.35389     13.33282         0.228520     -0.640241     -0.874690
H     10.35389      7.64558      5.87395        -0.021779      0.500865      0.345753
H     10.62451      7.64558     15.10445         0.335750      0.791601     -0.004401
H     10.62451     13.33282      5.87395         0.153995     -0.568231      0.201420
H     10.35389     13.33282     15.10445         0.033131     -0.288217     -0.166637
H      7.64558      5.87395     10.35389         0.370405      0.113939      0.063577
H      7.64558     15.10445     10.62451         0.388362     -0.128081      0.178730
H     13.33282      5.87395     10.62451        -0.306963      0.137333     -0.014222
H     13.33282     15.10445     10.35389        -0.659226     -0.105881      0.136363
H     12.45634     12.45634     19.01126         0.258825      0.272454     -0.226461
H     19.01126     19.01126     19.01126        -0.247977     -0.267327     -0.244425
H     19.01126     12.45634     12.45634        -0.249304      0.271733      0.236969
H     12.45634     19.01126     12.45634         0.289739     -0.235136      0.235259
C     10.35284      5.61067      6.59456         0.403803     -0.421093     -1.359977
C     10.62556     15.36773      6.59456        -0.167812      0.608607     -0.659249
C     10.62556      5.61067     14.38384         0.365726     -0.276802      0.776181
C     10.35284     15.36773     14.38384        -0.205664      0.216561      1.026616
C      6.59456     10.35284      5.61067        -1.396175      0.032424     -0.228811
C      6.59456     10.62556     15.36773        -0.666592      0.065268      0.356891
C     14.38384     10.62556      5.61067         1.307188     -0.186944     -0.630123
C     14.38384     10.35284     15.36773         0.317493     -0.131500      0.351067
C      5.61067      6.59456     10.35284        -0.274683     -0.673688     -0.030097
C     15.36773      6.59456     10.62556         0.409261     -0.859046      0.029110
C      5.61067     14.38384     10.62556        -0.147157      1.194881     -0.220358
C     15.36773     14.38384     10.35284         0.505172      0.706203     -0.036591
C      5.61067     10.35284      6.59456        -0.373934     -0.101903     -0.780903
C     15.36773     10.62556      6.59456         0.403911      0.106778     -0.682482
C      5.61067     10.62556     14.38384        -0.411076     -0.163257      1.219326
C     15.36773     10.35284     14.38384         0.234737      0.225714      1.418922
C     10.35284      6.59456      5.61067        -0.068939     -0.747635     -0.549998
C     10.62556      6.59456     15.36773        -0.143196     -0.983358      0.377018
C     10.62556     14.38384      5.61067        -0.493346      0.378676     -0.738288
C     10.35284     14.38384     15.36773        -0.174575      0.744908      0.495643
C      6.59456      5.61067     10.35284        -0.563651     -0.336695      0.003173
C      6.59456     15.36773     10.62556        -0.367052      0.447480      0.064641
C     14.38384      5.61067     10.62556         0.434147     -0.310601      0.008375
C     14.38384     15.36773     10.35284         1.131978      0.489288     -0.078008
C     10.40319      3.19606      7.29314        -0.007135      0.775354     -0.335141
C     10.35913      4.25547      6.23373         0.023139     -0.380139      0.289505
C      0.08601      7.29314      7.29314        -0.018840     -0.379310     -0.506371
C      0.13007      6.23373      6.23373        -0.047486      0.883115      0.093141
C      0.08601      3.19606      3.19606        -0.007425      0.695664      0.260613
C      0.13007      4.25547      4.25547         0.045024     -0.265569     -0.546792
C     10.40319      7.29314      3.19606        -0.064238     -1.116696      0.617035
C     10.35913      6.23373      4.25547        -0.046325      0.347091     -0.202344
C      7.29314     10.40319      3.19606        -1.094515     -0.054755      0.200699
C      6.23373     10.35913      4.25547         0.380218      0.101585     -0.521155
C      7.29314      0.08601      7.29314        -0.474391      0.029329     -0.445072
C      6.23373      0.13007      6.23373         0.179654      0.122556      0.120862
C      3.19606      0.08601      3.19606         0.702147      0.023637      0.171505
C      4.25547      0.13007      4.25547        -0.172523     -0.049929     -0.366627
C      3.19606     10.40319      7.29314         0.367877     -0.026152     -0.951739
C      4.25547     10.35913      6.23373        -0.129140     -0.054823      0.114372
C      3.19606      7.29314     10.40319         0.614445     -0.399174      0.002385
C      4.25547      6.23373     10.35913        -0.115794      0.177854      0.011490
C      7.29314      7.29314      0.08601        -0.428906     -0.294826     -0.015339
C      6.23373      6.23373      0.13007         0.150206      0.154428     -0.061837
C      3.19606      3.19606      0.08601         0.293330      0.491694     -0.025065
C      4.25547      4.25547      0.13007        -0.402737     -0.239662     -0.031443
C      7.29314      3.19606     10.40319        -0.283795      0.594768     -0.009804
C      6.23373      4.25547     10.35913         0.016116     -0.092410      0.014957
O     10.43466      3.58206      8.50569        -0.026325      0.074932      0.304789
O     10.54374     17.39634      8.50569         0.064336     -0.124126      0.594086
O     10.54374      3.58206     12.47271         0.029233      0.101628     -0.398008
O     10.43466     17.39634     12.47271         0.094124     -0.061733     -0.431498
O      8.50569     10.43466      3.58206         0.735414     -0.071989      0.015681
O      8.50569     10.54374     17.39634         0.531382      0.061711     -0.104080
O     12.47271     10.54374      3.58206        -0.656893      0.112035      0.211278
O     12.47271     10.43466     17.39634        -0.280037      0.004463      0.035617
O      3.58206      8.50569     10.43466         0.033793      0.444680     -0.062800
O     17.39634      8.50569     10.54374        -0.053885      0.446361      0.056504
O      3.58206     12.47271     10.54374         0.104306     -0.587603      0.004165
O     17.39634     12.47271     10.43466        -0.181198     -0.741120     -0.049592
O      3.58206     10.43466      8.50569         0.208986     -0.060873      0.807652
O     17.39634     10.54374      8.50569        -0.073987      0.072051      0.493926
O      3.58206     10.54374     12.47271        -0.003818     -0.005029     -0.261737
O     17.39634     10.43466     12.47271         0.035562     -0.010273     -0.232044
O     10.43466      8.50569      3.58206        -0.107046      0.533361     -0.101149
O     10.54374      8.50569     17.39634         0.059122      0.511078     -0.085481
O     10.54374     12.47271      3.58206         0.102665     -0.638640      0.129702
O     10.43466     12.47271     17.39634        -0.066087     -0.689448     -0.275364
O      8.50569      3.58206     10.43466         0.396385      0.022589     -0.045802
O      8.50569     17.39634     10.54374         0.641030     -0.154406      0.046198
O     12.47271      3.58206     10.54374        -0.516576      0.121463      0.028778
O     12.47271     17.39634     10.43466        -0.624423     -0.124568      0.040487
O     11.90042     11.90042     19.56718        -0.278584     -0.304363      0.223184
O     19.56718     19.56718     19.56718         0.309629      0.322570      0.298167
O     19.56718     11.90042     11.90042         0.283799     -0.325407     -0.235420
O     11.90042     19.56718     11.90042        -0.314490      0.229643     -0.201102
O      9.45224      1.03696      9.45224        -0.074134      0.086693     -0.079929
O      1.03696      9.45224      9.45224         0.100219     -0.108484     -0.061442
O      1.03696      1.03696      1.03696         0.079285      0.053843      0.098602
O      9.45224      9.45224      1.03696        -0.058335     -0.125769      0.136309
Zr     10.48920      2.52580     10.48920         0.043157     -0.093028      0.121023
Zr     10.48920     18.45260     10.48920        -0.182490      0.247924     -0.360246
Zr     10.48920     10.48920      2.52580         0.111369      0.359037     -0.346254
Zr     10.48920     10.48920     18.45260        -0.079692     -0.258737      0.233633
Zr      2.52580     10.48920     10.48920        -0.239914      0.131889      0.243715
Zr     18.45260     10.48920     10.48920         0.195693     -0.137280     -0.019780
Pd      9.36068     14.30015      9.31583         0.004860      0.016658     -0.025700
Pd      8.59020     13.64057     13.04227         0.004890      0.003522      0.021450
Pd     12.02404     14.40590      8.74337         0.005783     -0.005861      0.009400
Pd     12.75948     12.87772     10.67876        -0.034363     -0.013503      0.028360
Pd     12.11999      7.19245     12.67557         0.000003     -0.011306      0.006691
Pd     11.16167     14.89894     11.45580        -0.019844      0.024006     -0.012136
Pd     10.03707     12.55108     11.08732        -0.020984      0.027913     -0.018930
Pd     13.47948     12.15373      7.98257         0.007674      0.004852      0.010243
Pd     11.47951     11.54133      6.10845         0.002722      0.011501     -0.001030
Pd      7.94226      8.38159      7.52440         0.000372     -0.022793     -0.003361
Pd      8.72036     11.75664      6.84464         0.003380      0.000458     -0.007300
Pd     10.32390      9.45327      8.14919        -0.022962     -0.000059      0.018274
Pd      8.49850     14.46350      6.79344        -0.009704      0.007118     -0.019100
Pd     12.39853      9.01624      6.56661        -0.008107      0.021452      0.027769
Pd      9.71728      9.60879      5.57274         0.003987      0.006826      0.004512
Pd      6.81428      9.45208     12.13935         0.015065      0.005614      0.001044
Pd     12.17763      6.74306      7.95276         0.006731      0.003842      0.005908
Pd      5.91383     10.48358      9.69103         0.000144     -0.004512      0.009421
Pd      7.55002      7.24060     13.40854        -0.004657     -0.008800     -0.009844
Ir     11.73673      9.77644     13.06589        -0.006060     -0.016718      0.016551
Ir     13.55196      9.05559     11.47560         0.008296      0.022139     -0.000721
Ir      9.42632      8.86347     14.01005        -0.023620     -0.002720      0.012040
Ir     10.50598     11.02195     14.88156        -0.013513     -0.036795      0.070080
Ir      7.27021     12.01509     11.33873        -0.013675      0.001207      0.008975
Ir     14.65188     10.91110     10.14961        -0.031177      0.007376      0.040573
Ir     12.16311     10.57024      9.67811         0.017238      0.003974     -0.017107
Ir      8.74445     10.99820     12.98860         0.021318      0.023392      0.006704
Ir     10.10713      9.91683     11.17536        -0.012151      0.007326     -0.044712
Ir     13.73990     11.41848     12.48739        -0.035733      0.003500      0.028090
Ir     11.59459     12.35606     13.08746        -0.071566     -0.014287     -0.000662
Ir      8.49858     11.09841      9.33404         0.006561     -0.022268      0.008027
Ir     11.59322      8.02783     10.14367        -0.013807     -0.010463     -0.002220
Ir      7.21646     13.03050      8.65569         0.017573      0.022676      0.010493
Ir      9.54748      6.96313      9.23925         0.009199      0.008797      0.014419
Ir      8.05295      8.76472     10.05897         0.016561      0.002953     -0.008767
Ir     10.72204     12.12383      8.50347        -0.003337     -0.006823     -0.002610
Ir      9.51336      7.57221     11.75731         0.007520      0.010096     -0.029921
Ir     13.66671      8.79686      8.84032         0.019231      0.010053      0.033051
