152
# total energy = -1005.84908909 eVH     10.35389      5.87395      7.64558         0.167210      0.090363      0.563607
H     10.62451     15.10445      7.64558        -0.109783     -0.150522      0.502381
H     10.62451      5.87395     13.33282         0.525285      0.106254     -0.631553
H     10.35389     15.10445     13.33282         0.046199     -0.171888     -0.461607
H      7.64558     10.35389      5.87395         0.356082      0.031325      0.170216
H      7.64558     10.62451     15.10445         0.756433      0.488712     -0.038167
H     13.33282     10.62451      5.87395        -0.459103      0.346345      0.117427
H     13.33282     10.35389     15.10445        -0.824590     -0.069505      0.006806
H      5.87395      7.64558     10.35389         0.281162      1.107833      0.045051
H     15.10445      7.64558     10.62451        -0.104083      0.481441      0.285334
H      5.87395     13.33282     10.62451         0.166085     -0.675548     -0.129741
H     15.10445     13.33282     10.35389        -0.058565     -0.982201     -0.235038
H      5.87395     10.35389      7.64558         0.224336      0.029677      0.464137
H     15.10445     10.62451      7.64558        -0.136457      0.466494      0.790980
H      5.87395     10.62451     13.33282         0.137218      0.344423     -0.758565
H     15.10445     10.35389     13.33282        -0.076955     -0.039498     -0.670152
H     10.35389      7.64558      5.87395         0.336992      1.117842      0.050293
H     10.62451      7.64558     15.10445         0.671798      0.633614     -0.151432
H     10.62451     13.33282      5.87395        -0.402999     -0.792499      0.247279
H     10.35389     13.33282     15.10445        -0.068803     -0.464502     -0.265094
H      7.64558      5.87395     10.35389         0.947980      0.047135     -0.254712
H      7.64558     15.10445     10.62451         0.821674     -0.185280     -0.008813
H     13.33282      5.87395     10.62451        -0.769167      0.188290      0.556123
H     13.33282     15.10445     10.35389        -0.391574     -0.113903     -0.111326
H     12.45634     12.45634     19.01126         0.241975      0.268731     -0.237205
H     19.01126     19.01126     19.01126        -0.264865     -0.245085     -0.254136
H     19.01126     12.45634     12.45634        -0.271321      0.265154      0.223369
H     12.45634     19.01126     12.45634         0.234019     -0.262648      0.270521
C     10.35284      5.61067      6.59456        -0.341646     -0.690158     -0.041133
C     10.62556     15.36773      6.59456         0.090955      0.347520     -0.263844
C     10.62556      5.61067     14.38384        -0.217987     -0.469914     -0.201005
C     10.35284     15.36773     14.38384         0.006643      0.231060      0.440453
C      6.59456     10.35284      5.61067        -0.364842      0.005136     -0.256119
C      6.59456     10.62556     15.36773        -0.379809     -0.104867      0.668150
C     14.38384     10.62556      5.61067        -0.232581     -0.449213     -0.600935
C     14.38384     10.35284     15.36773         0.990773     -0.080068      0.185295
C      5.61067      6.59456     10.35284        -0.598472     -0.087398     -0.332879
C     15.36773      6.59456     10.62556         0.561509      0.002133     -0.271413
C      5.61067     14.38384     10.62556        -0.315492      0.940683      0.052008
C     15.36773     14.38384     10.35284         0.284736      0.994470      0.048216
C      5.61067     10.35284      6.59456        -0.258013     -0.029483     -0.698322
C     15.36773     10.62556      6.59456         0.453846     -0.281368      0.142944
C      5.61067     10.62556     14.38384        -0.615637     -0.259728     -0.005668
C     15.36773     10.35284     14.38384         0.410836     -0.046852      1.028513
C     10.35284      6.59456      5.61067        -0.211756     -0.627006     -0.559968
C     10.62556      6.59456     15.36773        -0.173220     -0.078474      0.546902
C     10.62556     14.38384      5.61067         0.213759      1.056229     -0.334917
C     10.35284     14.38384     15.36773        -0.001307      0.740967      0.388077
C      6.59456      5.61067     10.35284        -0.119967     -1.039991      0.208849
C      6.59456     15.36773     10.62556        -0.986421      0.245653      0.091389
C     14.38384      5.61067     10.62556         0.370110     -0.528989     -0.373171
C     14.38384     15.36773     10.35284         0.173278      0.410248     -0.066182
C     10.40319      3.19606      7.29314         0.010846      0.764694     -0.486808
C     10.35913      4.25547      6.23373         0.077048     -0.570004      0.073274
C      0.08601      7.29314      7.29314        -0.052479     -0.543601     -0.298349
C      0.13007      6.23373      6.23373        -0.037275      0.125098      0.571767
C      0.08601      3.19606      3.19606         0.006826      1.386289      0.290589
C      0.13007      4.25547      4.25547         0.044493     -0.732216     -0.202361
C     10.40319      7.29314      3.19606         0.008560     -0.317677      0.281148
C     10.35913      6.23373      4.25547         0.022367      0.036024     -0.730202
C      7.29314     10.40319      3.19606        -0.245130      0.018208      0.567204
C      6.23373     10.35913      4.25547         0.153872      0.050304     -0.066529
C      7.29314      0.08601      7.29314        -0.628376     -0.069024     -0.343092
C      6.23373      0.13007      6.23373         0.723289     -0.106122      0.471259
C      3.19606      0.08601      3.19606         0.961828     -0.020095      0.592618
C      4.25547      0.13007      4.25547        -0.584935     -0.070159     -0.548608
C      3.19606     10.40319      7.29314         0.487907     -0.010907     -0.779987
C      4.25547     10.35913      6.23373        -0.281409      0.073126      0.207491
C      3.19606      7.29314     10.40319         0.290692     -1.278439      0.031869
C      4.25547      6.23373     10.35913        -0.974159      0.068772      0.124805
C      7.29314      7.29314      0.08601        -0.419012     -0.396612     -0.020034
C      6.23373      6.23373      0.13007         0.476208      0.237201     -0.001152
C      3.19606      3.19606      0.08601         0.470534      0.385739     -0.039018
C      4.25547      4.25547      0.13007        -0.147504     -0.637256     -0.032890
C      7.29314      3.19606     10.40319        -0.357781      0.429392      0.060532
C      6.23373      4.25547     10.35913         0.292859     -0.707404      0.142967
O     10.43466      3.58206      8.50569        -0.009484      0.084774      0.485113
O     10.54374     17.39634      8.50569         0.048114     -0.144126      0.461188
O     10.54374      3.58206     12.47271         0.035687     -0.116181     -0.176534
O     10.43466     17.39634     12.47271        -0.034439     -0.179489     -0.516161
O      8.50569     10.43466      3.58206         0.260513     -0.021329      0.009686
O      8.50569     10.54374     17.39634         0.680620      0.003894     -0.160120
O     12.47271     10.54374      3.58206        -0.834085      0.100230      0.099168
O     12.47271     10.43466     17.39634        -0.440875      0.029333     -0.081838
O      3.58206      8.50569     10.43466         0.155894      1.045691     -0.021945
O     17.39634      8.50569     10.54374        -0.159997      0.558666      0.074095
O      3.58206     12.47271     10.54374         0.094742     -0.402301      0.052785
O     17.39634     12.47271     10.43466        -0.150929     -0.530280     -0.026999
O      3.58206     10.43466      8.50569         0.081716     -0.079220      0.622928
O     17.39634     10.54374      8.50569        -0.082089      0.080550      0.492289
O      3.58206     10.54374     12.47271        -0.006085      0.032826     -0.483258
O     17.39634     10.43466     12.47271        -0.239266     -0.042176     -0.655247
O     10.43466      8.50569      3.58206        -0.037444      0.444331      0.141573
O     10.54374      8.50569     17.39634         0.009478      0.595497     -0.165437
O     10.54374     12.47271      3.58206         0.040950     -1.042910      0.142344
O     10.43466     12.47271     17.39634         0.043606     -0.750512     -0.191725
O      8.50569      3.58206     10.43466         0.544805      0.156586     -0.058423
O      8.50569     17.39634     10.54374         0.502503     -0.191215      0.010616
O     12.47271      3.58206     10.54374        -0.615654      0.208726      0.000138
O     12.47271     17.39634     10.43466        -0.241717      0.059106     -0.042380
O     11.90042     11.90042     19.56718        -0.250325     -0.289859      0.240222
O     19.56718     19.56718     19.56718         0.315285      0.299407      0.285930
O     19.56718     11.90042     11.90042         0.306853     -0.262759     -0.237986
O     11.90042     19.56718     11.90042        -0.237214      0.300983     -0.317134
O      9.45224      1.03696      9.45224        -0.006170      0.087569     -0.096563
O      1.03696      9.45224      9.45224         0.090325     -0.076774     -0.143283
O      1.03696      1.03696      1.03696         0.104096      0.181706      0.044556
O      9.45224      9.45224      1.03696        -0.100024     -0.106277      0.029976
Zr     10.48920      2.52580     10.48920        -0.120249     -0.268756     -0.001215
Zr     10.48920     18.45260     10.48920        -0.081879      0.194903      0.091049
Zr     10.48920     10.48920      2.52580        -0.108424     -0.412606     -0.244185
Zr     10.48920     10.48920     18.45260        -0.224514     -0.100763      0.356610
Zr      2.52580     10.48920     10.48920        -0.368461      0.230721      0.258882
Zr     18.45260     10.48920     10.48920         0.199392      0.000005     -0.172612
Pd     13.61161      8.93138      9.22713        -0.011918     -0.002514      0.009983
Pd      5.66357      9.84998     10.08784        -0.016319      0.013153      0.017159
Pd      6.75588     11.78093     11.66993         0.017472     -0.001118      0.009148
Pd     12.18933     13.07864      7.32591        -0.012814     -0.007368     -0.002609
Pd     11.99960      7.83570      7.34278        -0.020786     -0.012366      0.015769
Pd      8.29100      7.03479      6.58322        -0.001031     -0.013173     -0.013382
Pd     10.88834     11.24515      5.59192        -0.037050     -0.016717      0.011456
Pd     14.54608      8.53320      6.76266        -0.027010      0.006668      0.006002
Pd      9.66620     11.79128      8.00152         0.003745     -0.002753      0.020935
Pd      6.87466      6.80406     12.25959        -0.061109     -0.010929      0.024188
Pd      6.38560      7.67341      8.26626         0.023696      0.028037     -0.005904
Pd      6.72457      8.59670     14.18959        -0.066772     -0.011544      0.010371
Pd     11.50839      6.50535      9.68414         0.008524     -0.010750      0.023699
Pd      9.67925      9.28736      6.98429        -0.031531     -0.008627      0.046294
Pd      9.01094     13.97384      9.35739         0.000740      0.012308     -0.014439
Pd      9.61008      7.29817     11.70048         0.017709      0.001455     -0.011369
Pd     10.51899      8.97004      9.62721         0.018768     -0.002052      0.008706
Pd      9.31974     11.40901     10.60246         0.003810      0.023619      0.016060
Pd      8.87144      7.00939      9.15235         0.017071     -0.001528     -0.011730
Pd      8.61804      6.67068     14.20495        -0.005718      0.018326     -0.015230
Pd      7.78256      9.29767     11.75894        -0.013079     -0.022584      0.041014
Pd     11.97655     10.47338      7.83379         0.001657     -0.010399     -0.009217
Pd      7.13473     12.04294      9.03978         0.004326     -0.004765      0.007096
Pd      8.04471      9.57384      9.02591         0.004883     -0.004305      0.082018
Pd     14.06132      6.46864      8.48723        -0.000978      0.003602      0.001303
Pd     12.45064      8.25785     11.52852         0.013457      0.008643      0.013822
Pd      8.73834     11.49400     13.39124         0.015022      0.042937     -0.004172
Pd     13.91847     11.93329      9.01649        -0.002233      0.006779     -0.009012
Pd     12.88695     10.59468     13.07599         0.006963      0.006109     -0.010952
Pd     14.76633     10.38000     11.13599         0.002394      0.010355     -0.008200
Pd     12.07594     10.77900     10.55809        -0.002461      0.022807     -0.007494
Pd     11.45243     13.19840      9.85346         0.004325      0.029882      0.004378
Pd     13.57405     12.84804     11.65553         0.009855      0.009491     -0.003692
Pd     11.05812     12.55134     12.44711         0.016065      0.021152      0.008486
Pd     10.99293     11.24839     14.83823        -0.005176     -0.040465     -0.011346
Pd     10.45093      9.69239     12.44352         0.001034      0.015520     -0.017222
Pd      9.27693      9.21692     14.68090        -0.072682      0.012228     -0.064851
Pd      8.73119     13.71844     11.99247         0.017149      0.036442     -0.010883
