152
# total energy = -1022.64022274 eVH     10.35389      5.87395      7.64558         0.449452      0.006444      0.971950
H     10.62451     15.10445      7.64558         0.008196     -0.014335      0.688610
H     10.62451      5.87395     13.33282         0.134440      0.111927     -0.613962
H     10.35389     15.10445     13.33282        -0.271478     -0.069341     -0.551963
H      7.64558     10.35389      5.87395         0.356417     -0.057758      0.195809
H      7.64558     10.62451     15.10445         0.620373     -0.161001     -0.131923
H     13.33282     10.62451      5.87395        -0.978958     -0.442352      0.087070
H     13.33282     10.35389     15.10445        -0.481719     -0.079862     -0.050097
H      5.87395      7.64558     10.35389         0.082181      1.206348     -0.094955
H     15.10445      7.64558     10.62451        -0.170204      0.396719     -0.077525
H      5.87395     13.33282     10.62451         0.143796     -0.391170     -0.067807
H     15.10445     13.33282     10.35389        -0.083362     -0.975724     -0.285308
H      5.87395     10.35389      7.64558         0.121448      0.003373      0.438571
H     15.10445     10.62451      7.64558         0.136098     -0.181273      0.756767
H      5.87395     10.62451     13.33282         0.270704     -0.041408     -0.411324
H     15.10445     10.35389     13.33282        -0.156031      0.035862     -0.631567
H     10.35389      7.64558      5.87395         0.159787      0.859429      0.093606
H     10.62451      7.64558     15.10445         0.016260      0.656791     -0.126788
H     10.62451     13.33282      5.87395         0.220286     -0.572607      0.182539
H     10.35389     13.33282     15.10445        -0.218917     -0.900738     -0.114713
H      7.64558      5.87395     10.35389         0.516208      0.035206     -0.163026
H      7.64558     15.10445     10.62451         0.917724     -0.186881      0.299461
H     13.33282      5.87395     10.62451        -0.427094      0.190981     -0.067104
H     13.33282     15.10445     10.35389        -0.996687     -0.067274      0.257324
H     12.45634     12.45634     19.01126         0.270387      0.258069     -0.221186
H     19.01126     19.01126     19.01126        -0.248829     -0.235565     -0.261475
H     19.01126     12.45634     12.45634        -0.244228      0.271366      0.236255
H     12.45634     19.01126     12.45634         0.207212     -0.285105      0.255952
C     10.35284      5.61067      6.59456        -0.092297     -0.442868     -0.591671
C     10.62556     15.36773      6.59456         0.015044      0.335069     -0.996554
C     10.62556      5.61067     14.38384        -0.010957     -0.268935      0.733272
C     10.35284     15.36773     14.38384         0.214947      0.730159      0.073045
C      6.59456     10.35284      5.61067        -0.506170     -0.043286     -0.224481
C      6.59456     10.62556     15.36773        -0.817703      0.140948      0.381544
C     14.38384     10.62556      5.61067         0.926136      0.287804     -0.333250
C     14.38384     10.35284     15.36773         0.753726     -0.123472      0.428478
C      5.61067      6.59456     10.35284        -0.404059     -0.886686      0.214574
C     15.36773      6.59456     10.62556         0.207016     -0.482026      0.040906
C      5.61067     14.38384     10.62556        -0.258057      0.381228     -0.013408
C     15.36773     14.38384     10.35284         0.342313      0.262267      0.254891
C      5.61067     10.35284      6.59456        -0.320048      0.005154     -0.854561
C     15.36773     10.62556      6.59456         0.536645     -0.143942     -1.219573
C      5.61067     10.62556     14.38384        -0.497540      0.006935      1.026785
C     15.36773     10.35284     14.38384         0.545156     -0.187488      1.289781
C     10.35284      6.59456      5.61067        -0.023139     -0.993906     -0.690920
C     10.62556      6.59456     15.36773         0.051357     -0.811049      0.353679
C     10.62556     14.38384      5.61067        -0.011630      1.356872     -0.729677
C     10.35284     14.38384     15.36773         0.068185      0.615777      0.626886
C      6.59456      5.61067     10.35284        -0.195828     -0.905011      0.130848
C      6.59456     15.36773     10.62556        -1.745405      0.491493      0.036929
C     14.38384      5.61067     10.62556         0.562903     -0.224651     -0.001693
C     14.38384     15.36773     10.35284         0.364692      0.501564     -0.219481
C     10.40319      3.19606      7.29314         0.018570      0.953547     -0.237398
C     10.35913      4.25547      6.23373        -0.045099     -0.312142      0.687856
C      0.08601      7.29314      7.29314        -0.010645     -0.224332     -0.460721
C      0.13007      6.23373      6.23373        -0.009652      0.135285      0.185898
C      0.08601      3.19606      3.19606        -0.021459      0.695212      0.159944
C      0.13007      4.25547      4.25547        -0.099338     -0.192341     -0.166279
C     10.40319      7.29314      3.19606        -0.001583     -0.663051      0.497215
C     10.35913      6.23373      4.25547         0.003005      0.549289     -0.323374
C      7.29314     10.40319      3.19606        -0.392856      0.018844      0.859418
C      6.23373     10.35913      4.25547         0.229167      0.002537     -0.163812
C      7.29314      0.08601      7.29314        -0.304257     -0.050693     -0.245837
C      6.23373      0.13007      6.23373         0.269262     -0.075137      0.263433
C      3.19606      0.08601      3.19606         0.361512     -0.056192      1.326574
C      4.25547      0.13007      4.25547        -0.157398     -0.015959     -0.437562
C      3.19606     10.40319      7.29314         0.731889      0.016648     -0.263800
C      4.25547     10.35913      6.23373        -0.127840      0.037055      0.121143
C      3.19606      7.29314     10.40319         0.553234     -1.255863      0.038073
C      4.25547      6.23373     10.35913        -0.746389      0.753058      0.032041
C      7.29314      7.29314      0.08601        -0.646246     -0.177638     -0.024689
C      6.23373      6.23373      0.13007         0.171344      0.265144     -0.014858
C      3.19606      3.19606      0.08601         0.249814      0.258371     -0.020115
C      4.25547      4.25547      0.13007        -0.053569     -0.034526      0.016854
C      7.29314      3.19606     10.40319        -0.360242      0.725095      0.026818
C      6.23373      4.25547     10.35913         0.774098     -0.195954      0.029409
O     10.43466      3.58206      8.50569        -0.054155      0.022925      0.295731
O     10.54374     17.39634      8.50569        -0.019988     -0.191723      0.610141
O     10.54374      3.58206     12.47271         0.063424      0.049882     -0.299994
O     10.43466     17.39634     12.47271        -0.025148     -0.124766     -0.562657
O      8.50569     10.43466      3.58206         0.402178     -0.011471     -0.005317
O      8.50569     10.54374     17.39634         0.465923      0.057239     -0.143965
O     12.47271     10.54374      3.58206        -0.237014      0.062973     -0.104351
O     12.47271     10.43466     17.39634        -0.849136      0.024359     -0.211922
O      3.58206      8.50569     10.43466         0.033212      0.897842      0.042032
O     17.39634      8.50569     10.54374        -0.035159      0.347401      0.080045
O      3.58206     12.47271     10.54374         0.066203     -0.426906      0.060059
O     17.39634     12.47271     10.43466        -0.160975     -0.732145      0.013196
O      3.58206     10.43466      8.50569        -0.055551     -0.061876      0.229765
O     17.39634     10.54374      8.50569        -0.133796      0.042327      0.445451
O      3.58206     10.54374     12.47271        -0.046830     -0.059169     -0.867580
O     17.39634     10.43466     12.47271        -0.190844      0.039247     -0.752486
O     10.43466      8.50569      3.58206         0.031806      0.680490      0.197134
O     10.54374      8.50569     17.39634         0.053859      0.406491     -0.073028
O     10.54374     12.47271      3.58206        -0.035189     -0.740718      0.246724
O     10.43466     12.47271     17.39634         0.057432     -0.852844     -0.279292
O      8.50569      3.58206     10.43466         0.498623      0.090523     -0.040937
O      8.50569     17.39634     10.54374         0.653710     -0.241229     -0.057617
O     12.47271      3.58206     10.54374        -0.501964      0.159627      0.042074
O     12.47271     17.39634     10.43466        -0.491680     -0.033624     -0.041021
O     11.90042     11.90042     19.56718        -0.306744     -0.311065      0.261832
O     19.56718     19.56718     19.56718         0.290739      0.274062      0.321317
O     19.56718     11.90042     11.90042         0.282709     -0.328605     -0.236527
O     11.90042     19.56718     11.90042        -0.221581      0.294511     -0.241639
O      9.45224      1.03696      9.45224        -0.071879      0.057971     -0.064313
O      1.03696      9.45224      9.45224         0.068040     -0.141271     -0.050491
O      1.03696      1.03696      1.03696         0.046963      0.030661      0.188907
O      9.45224      9.45224      1.03696        -0.036025     -0.085846      0.130657
Zr     10.48920      2.52580     10.48920        -0.002570     -0.076053     -0.029021
Zr     10.48920     18.45260     10.48920         0.038539      0.290574     -0.066693
Zr     10.48920     10.48920      2.52580        -0.083936     -0.024708     -0.371738
Zr     10.48920     10.48920     18.45260        -0.145678     -0.188423      0.306258
Zr      2.52580     10.48920     10.48920        -0.325026      0.334403     -0.479665
Zr     18.45260     10.48920     10.48920         0.219023      0.038239     -0.281265
Pd      9.05254     10.28231     13.41316        -0.001107     -0.004989     -0.034581
Pd     10.63441      9.72513     11.14767        -0.014127      0.009720     -0.063255
Pd     13.76502      8.54325     12.76291        -0.009060      0.002297     -0.038174
Pd     11.00843     11.11431     15.07956        -0.005269     -0.011749     -0.024033
Pd     12.83469     11.18031     13.06006         0.012739      0.016175     -0.006817
Pd     14.97513     10.87004     11.36538        -0.011003      0.026548     -0.005886
Pd      6.68402      7.41089     12.31732        -0.011058      0.002687      0.009732
Pd      9.23960      7.28722     10.22074        -0.019457     -0.019195     -0.023366
Pd      9.25846      7.64389     12.87760         0.004342     -0.008391     -0.025458
Pd     11.71292      7.26721     11.56661        -0.012006      0.013156     -0.048894
Pd     11.38630      7.93962      8.92255        -0.053340      0.049275     -0.025317
Pd      7.23102     11.83150     12.02620         0.011028      0.002309     -0.026983
Pd      8.89556     14.65193      9.33455        -0.012591      0.014179      0.005767
Pd      8.43007     12.70543     14.34355        -0.004729     -0.016886     -0.009038
Pd     13.30362     13.97203      8.65900         0.064438      0.039669     -0.031074
Pd     10.82425     13.17680      8.44986         0.052860      0.061074      0.010251
Pd     14.05072     11.42736      8.96285         0.007731      0.023007     -0.019053
Pd      8.63109     14.09329     12.08461        -0.003842      0.007048      0.005228
Pd     12.23793     13.75848     13.99690         0.003147      0.000936      0.015251
Pd     11.14534     14.38966     11.06023         0.004454      0.019094      0.023580
Pd     14.07149     13.49034     12.16167         0.002033      0.033204      0.011422
Pd     12.29508     12.10936     10.69289         0.025167      0.019092     -0.003449
Pd     12.52143     12.08889      6.78488         0.046084      0.082857     -0.019067
Pd     13.57549      8.93609      7.89297         0.014139     -0.003835      0.012702
Pd      6.88964      8.43717      8.92073        -0.038771      0.010071     -0.032900
Pd      5.52074      9.87391     11.33620        -0.006138      0.013412     -0.011524
Pd      9.00520      9.87093      8.18988         0.050464     -0.047360      0.073310
Pd      8.93856      7.33594      7.55128        -0.058989     -0.062243     -0.025221
Pd      9.46001     12.02027     10.44308         0.024087      0.026695     -0.013705
Pd     11.42256     10.59367      8.72800         0.063870      0.087642     -0.043433
Pd     11.11277      9.35669      6.46467         0.042425     -0.038492     -0.012347
Pd      9.72284     11.68590      6.29019         0.054343     -0.053683      0.046943
Ir     11.37224      9.08407     13.50185        -0.004105      0.003683     -0.037522
Ir     13.07620      9.39075     10.43306        -0.001779      0.034902     -0.006623
Ir     10.53224     12.35850     12.70797         0.020905      0.004728      0.005953
Ir      7.04392     10.97232      9.57730         0.038964      0.025114     -0.034945
Ir      8.25344     12.45236      8.20989         0.040188     -0.038295      0.008952
Ir      8.09570      9.34622     11.16253        -0.001618     -0.021087     -0.012000
