152
# total energy = -1110.39265244 eVH     10.35389      5.87395      7.64558        -0.386726     -0.130148      1.147271
H     10.62451     15.10445      7.64558         0.328073      0.078123      0.919325
H     10.62451      5.87395     13.33282        -0.318938     -0.676044     -1.339154
H     10.35389     15.10445     13.33282        -0.585761      0.427001     -0.333852
H      7.64558     10.35389      5.87395         0.557683     -0.521365     -0.100484
H      7.64558     10.62451     15.10445         0.385339     -0.234070      0.043767
H     13.33282     10.62451      5.87395        -0.579350      0.646844     -0.047892
H     13.33282     10.35389     15.10445        -0.525543      0.388070      0.154265
H      5.87395      7.64558     10.35389         0.149588      0.556144      0.028390
H     15.10445      7.64558     10.62451         0.428780      1.021567      0.284003
H      5.87395     13.33282     10.62451        -0.220864     -0.503246      0.361900
H     15.10445     13.33282     10.35389         0.027776     -0.299167     -0.379834
H      5.87395     10.35389      7.64558        -0.102930     -0.411147      1.487588
H     15.10445     10.62451      7.64558         0.219634      0.513630      1.327040
H      5.87395     10.62451     13.33282        -0.217110     -0.369829     -1.205427
H     15.10445     10.35389     13.33282         0.611476      0.999860     -1.532703
H     10.35389      7.64558      5.87395        -0.584180      0.529734     -0.173079
H     10.62451      7.64558     15.10445        -0.134249      0.451313      0.158311
H     10.62451     13.33282      5.87395         0.868733     -1.328263     -0.312800
H     10.35389     13.33282     15.10445         0.225771     -0.562672     -0.105635
H      7.64558      5.87395     10.35389         0.720198      0.164273     -0.172951
H      7.64558     15.10445     10.62451         1.980463      0.750809      0.222283
H     13.33282      5.87395     10.62451        -2.655080     -0.905650     -0.511689
H     13.33282     15.10445     10.35389        -0.877791     -0.055967     -0.252608
H     12.45634     12.45634     19.01126         0.271948      0.258108     -0.227127
H     19.01126     19.01126     19.01126        -0.266819     -0.254548     -0.238478
H     19.01126     12.45634     12.45634        -0.284065      0.281917      0.185154
H     12.45634     19.01126     12.45634         0.256411     -0.250411      0.236004
C     10.35284      5.61067      6.59456         0.076476     -0.484372     -1.204279
C     10.62556     15.36773      6.59456         0.191732      0.754642     -0.811368
C     10.62556      5.61067     14.38384         0.180905     -0.295706      1.785648
C     10.35284     15.36773     14.38384         0.085248      0.383717      1.791448
C      6.59456     10.35284      5.61067        -1.138482     -0.110157     -0.895170
C      6.59456     10.62556     15.36773        -0.701875     -0.094971      0.795031
C     14.38384     10.62556      5.61067         0.838519     -0.111205     -0.990554
C     14.38384     10.35284     15.36773         1.178526      0.168297      1.098449
C      5.61067      6.59456     10.35284        -0.668678     -0.900027     -0.188252
C     15.36773      6.59456     10.62556         2.008726     -0.321603     -0.187299
C      5.61067     14.38384     10.62556        -1.568124     -0.012243     -0.141686
C     15.36773     14.38384     10.35284         0.484765      0.089690      0.000685
C      5.61067     10.35284      6.59456        -0.274753      0.213281     -1.353264
C     15.36773     10.62556      6.59456         0.295634     -0.264669     -0.981635
C      5.61067     10.62556     14.38384        -0.255989      0.446976      1.458531
C     15.36773     10.35284     14.38384         0.005234     -0.486337      1.944106
C     10.35284      6.59456      5.61067        -0.160178     -0.848412     -0.697715
C     10.62556      6.59456     15.36773        -0.118308     -0.715963      1.045509
C     10.62556     14.38384      5.61067        -0.501783      1.987760     -0.753507
C     10.35284     14.38384     15.36773        -0.260023      1.360410      0.502287
C      6.59456      5.61067     10.35284        -0.988338     -0.410055      0.094393
C      6.59456     15.36773     10.62556        -1.257808      0.369464     -0.333403
C     14.38384      5.61067     10.62556         1.270417     -1.300269      0.216427
C     14.38384     15.36773     10.35284         0.458065      0.311227      0.086255
C     10.40319      3.19606      7.29314         0.001155      0.305308     -0.110918
C     10.35913      4.25547      6.23373         0.142078     -0.575077      0.016575
C      0.08601      7.29314      7.29314        -0.053352     -0.279736     -0.419576
C      0.13007      6.23373      6.23373        -0.123228      0.670008      0.017784
C      0.08601      3.19606      3.19606        -0.105700      1.661870      0.165982
C      0.13007      4.25547      4.25547        -0.096906     -0.392000     -1.206723
C     10.40319      7.29314      3.19606         0.015737     -0.449095      0.121946
C     10.35913      6.23373      4.25547         0.263856      0.086758     -0.534668
C      7.29314     10.40319      3.19606        -1.696164      0.011218      0.324739
C      6.23373     10.35913      4.25547         0.670057      0.081244     -0.622297
C      7.29314      0.08601      7.29314        -0.410581     -0.015104     -0.316844
C      6.23373      0.13007      6.23373         0.726021     -0.058136      0.246244
C      3.19606      0.08601      3.19606         0.661036     -0.018123      0.180386
C      4.25547      0.13007      4.25547        -0.357459     -0.085204     -0.570204
C      3.19606     10.40319      7.29314         0.350511      0.023643     -0.319297
C      4.25547     10.35913      6.23373        -0.740619      0.078379      0.363362
C      3.19606      7.29314     10.40319         0.285227     -0.202521     -0.006301
C      4.25547      6.23373     10.35913         0.042637      0.633819      0.091837
C      7.29314      7.29314      0.08601        -0.716135     -0.609858     -0.027288
C      6.23373      6.23373      0.13007         0.901601      1.125261     -0.065490
C      3.19606      3.19606      0.08601         0.824041      0.514699      0.001635
C      4.25547      4.25547      0.13007        -0.326880     -1.766579     -0.129480
C      7.29314      3.19606     10.40319        -0.325053      0.271169     -0.004249
C      6.23373      4.25547     10.35913         0.508198     -0.020643      0.231174
O     10.43466      3.58206      8.50569        -0.048621      0.187184      0.260013
O     10.54374     17.39634      8.50569         0.042211     -0.236219      0.486821
O     10.54374      3.58206     12.47271         0.083864     -0.075049     -0.022663
O     10.43466     17.39634     12.47271        -0.023170     -0.141422     -0.268692
O      8.50569     10.43466      3.58206         0.992839      0.190106      0.377428
O      8.50569     10.54374     17.39634         0.579626      0.084636     -0.229276
O     12.47271     10.54374      3.58206        -0.413835     -0.040746      0.182235
O     12.47271     10.43466     17.39634        -0.506782     -0.067430     -0.192798
O      3.58206      8.50569     10.43466         0.184401      0.423660     -0.028560
O     17.39634      8.50569     10.54374        -0.230548      0.713047      0.046437
O      3.58206     12.47271     10.54374         0.162119     -0.682083      0.026513
O     17.39634     12.47271     10.43466        -0.186766     -0.474758     -0.010151
O      3.58206     10.43466      8.50569         0.231002     -0.061471      0.406354
O     17.39634     10.54374      8.50569        -0.171949      0.037584      0.412882
O      3.58206     10.54374     12.47271         0.148185      0.021692     -0.303580
O     17.39634     10.43466     12.47271         0.081092     -0.051419     -0.070396
O     10.43466      8.50569      3.58206         0.004832      0.273775      0.183867
O     10.54374      8.50569     17.39634         0.069612      0.426681     -0.174165
O     10.54374     12.47271      3.58206        -0.222077     -0.974364      0.330404
O     10.43466     12.47271     17.39634        -0.082264     -0.450637     -0.244935
O      8.50569      3.58206     10.43466         0.489093      0.197617     -0.009712
O      8.50569     17.39634     10.54374         0.665037     -0.203332      0.022536
O     12.47271      3.58206     10.54374        -0.747314      0.280853      0.038347
O     12.47271     17.39634     10.43466        -0.432419     -0.205677     -0.043372
O     11.90042     11.90042     19.56718        -0.347218     -0.307025      0.261239
O     19.56718     19.56718     19.56718         0.324167      0.311896      0.284414
O     19.56718     11.90042     11.90042         0.274549     -0.273441     -0.138013
O     11.90042     19.56718     11.90042        -0.305292      0.283358     -0.232882
O      9.45224      1.03696      9.45224        -0.061294      0.073486     -0.044862
O      1.03696      9.45224      9.45224         0.035799     -0.075392     -0.069789
O      1.03696      1.03696      1.03696         0.063626      0.150244      0.095707
O      9.45224      9.45224      1.03696        -0.143333     -0.098322      0.096094
Zr     10.48920      2.52580     10.48920         0.164041     -0.173150     -0.167729
Zr     10.48920     18.45260     10.48920        -0.101613      0.187837     -0.050579
Zr     10.48920     10.48920      2.52580         0.344024     -0.310169     -0.205103
Zr     10.48920     10.48920     18.45260         0.014849     -0.088279      0.200179
Zr      2.52580     10.48920     10.48920        -0.071919      0.180133     -0.052209
Zr     18.45260     10.48920     10.48920         0.146965     -0.132638     -0.252603
Ir     12.03773     12.48392     10.45501         0.019014     -0.017979     -0.024896
Ir     11.21944      7.41333     10.24226         0.009630     -0.003029     -0.021214
Ir      8.85757      7.34839     11.52201         0.004762     -0.008207     -0.015294
Ir      7.46089     11.64781      7.65750        -0.013416     -0.005810     -0.002521
Ir     11.59568     12.07177      7.11186         0.005041     -0.005433     -0.001162
Ir     13.78551      8.99323      7.52112         0.008256      0.002962     -0.010776
Ir     12.47071     13.95213      8.40649        -0.002967     -0.005749     -0.002389
Ir      9.74035     11.25413      5.53874         0.003671      0.000168     -0.011602
Ir      9.07390     13.44124      7.07729         0.002648     -0.005304     -0.006212
Ir      9.26566      9.67333      7.49805        -0.010120      0.005712     -0.001746
Ir     13.28626      7.03566     11.95975         0.003816     -0.013262      0.000024
Ir     13.64020      7.04224      9.10678         0.018789      0.000756     -0.003271
Ir     11.04549      7.59034     12.79767        -0.005396     -0.004237     -0.016874
Ir     13.59781     11.56445      8.75034        -0.016115      0.000899      0.006806
Ir     11.50204      9.62076      6.21796        -0.000483     -0.010928     -0.007557
Ir      7.16157      9.14503      8.91865         0.002009     -0.007059     -0.009269
Ir     14.06057     11.43987     11.64596        -0.001945      0.002189     -0.007951
Ir     11.66156      9.82460      8.85835        -0.000700     -0.004245     -0.008579
Ir      9.44461      9.49860     10.22408         0.002379      0.000057     -0.010762
Ir     13.88048      9.41310     10.16588         0.003356      0.006661     -0.009451
Ir     13.83859      9.16280     12.87790         0.013846      0.004347     -0.007083
Ir     11.70369      9.75806     11.53695         0.005016     -0.003021     -0.014234
Ir      9.91741     11.72817      8.96144         0.006197     -0.029604      0.000045
Ir      9.11192      7.43382      8.76672         0.014721      0.002739     -0.022343
Ir     11.64083      7.52062      7.71902         0.027428     -0.022319     -0.020553
Ir      9.25628      9.46535     13.00207         0.000819     -0.006068     -0.006053
Ir      7.50538     13.89854      8.99417        -0.003420     -0.001186      0.004435
Ir     10.86237     14.09748     11.95174        -0.015524      0.010886      0.018383
Ir     10.11061     14.14379      9.51473        -0.002957      0.006169     -0.002170
Ir      9.79083     11.67698     11.72257        -0.013928     -0.010479      0.001436
Ir      7.59079     11.56016     10.20536         0.003335     -0.007776      0.003325
Ir      8.34317     13.73223     11.58146        -0.000029     -0.011407      0.000410
Ir      7.52535     11.53933     12.82085         0.003388     -0.007283     -0.004318
Ir      9.77935     11.58831     14.34190         0.005349     -0.012661     -0.000716
Ir     13.46398     13.88401     12.18546        -0.001271     -0.000892     -0.000343
Ir     11.98966     12.04179     13.07608         0.002819     -0.010130      0.002831
Ir     11.58697      9.77751     14.17578         0.003489     -0.009800     -0.012470
Ir      7.15839      9.34400     11.47741         0.000518     -0.006083     -0.005839
