152
# total energy = -1061.42907160 eVH     10.35389      5.87395      7.64558        -0.138491      0.118640      0.987656
H     10.62451     15.10445      7.64558         0.351208     -0.092657      0.789693
H     10.62451      5.87395     13.33282        -0.120639      0.087100     -0.481767
H     10.35389     15.10445     13.33282         0.087859     -0.188581     -0.391823
H      7.64558     10.35389      5.87395         0.914482      0.148811      0.210825
H      7.64558     10.62451     15.10445         0.206963     -0.021160     -0.065331
H     13.33282     10.62451      5.87395        -0.644288     -0.005440      0.166651
H     13.33282     10.35389     15.10445        -0.324390     -0.069449     -0.062214
H      5.87395      7.64558     10.35389         0.138325      0.353632     -0.065716
H     15.10445      7.64558     10.62451        -0.137890      0.513953      0.209863
H      5.87395     13.33282     10.62451         0.122008     -0.593221      0.062162
H     15.10445     13.33282     10.35389        -0.234760     -0.429457      0.089969
H      5.87395     10.35389      7.64558         0.171281      0.223046      0.367319
H     15.10445     10.62451      7.64558        -0.146268     -0.334306      0.695137
H      5.87395     10.62451     13.33282         0.038179      0.118142     -0.706211
H     15.10445     10.35389     13.33282         0.090307     -0.270346     -0.735010
H     10.35389      7.64558      5.87395        -0.108134      0.432550      0.236863
H     10.62451      7.64558     15.10445         0.389566      0.637811     -0.110383
H     10.62451     13.33282      5.87395         0.160293     -0.584025      0.103908
H     10.35389     13.33282     15.10445         0.215560     -0.736359     -0.074873
H      7.64558      5.87395     10.35389         0.472411      0.152759     -0.134580
H      7.64558     15.10445     10.62451         0.419103     -0.161577      0.380400
H     13.33282      5.87395     10.62451        -0.375747      0.157369     -0.071178
H     13.33282     15.10445     10.35389        -0.562386     -0.277956      0.118532
H     12.45634     12.45634     19.01126         0.234663      0.264829     -0.245201
H     19.01126     19.01126     19.01126        -0.260922     -0.261325     -0.227784
H     19.01126     12.45634     12.45634        -0.233008      0.271864      0.240183
H     12.45634     19.01126     12.45634         0.278616     -0.211213      0.253839
C     10.35284      5.61067      6.59456         0.282813     -0.288851     -0.829601
C     10.62556     15.36773      6.59456        -0.212230      0.641260     -0.263277
C     10.62556      5.61067     14.38384         0.264524     -0.305318      0.508947
C     10.35284     15.36773     14.38384        -0.115688      0.265674      0.256395
C      6.59456     10.35284      5.61067        -0.888148     -0.122872     -0.219758
C      6.59456     10.62556     15.36773        -0.524493      0.049162      0.343601
C     14.38384     10.62556      5.61067         0.857996     -0.045152     -0.619586
C     14.38384     10.35284     15.36773         0.273248     -0.086939      0.370444
C      5.61067      6.59456     10.35284        -0.391416     -0.366492      0.063437
C     15.36773      6.59456     10.62556         0.283580     -0.592198     -0.104333
C      5.61067     14.38384     10.62556        -0.156022      0.537827     -0.321978
C     15.36773     14.38384     10.35284         0.406930      0.822515     -0.100245
C      5.61067     10.35284      6.59456        -0.279219     -0.136784     -0.122842
C     15.36773     10.62556      6.59456         0.229690      0.272156     -0.557581
C      5.61067     10.62556     14.38384        -0.342541     -0.027036      1.195160
C     15.36773     10.35284     14.38384         0.296110     -0.052902      0.999714
C     10.35284      6.59456      5.61067         0.076185     -0.285063     -0.473596
C     10.62556      6.59456     15.36773        -0.002729     -0.824172      0.209376
C     10.62556     14.38384      5.61067        -0.394238      0.081632     -0.846580
C     10.35284     14.38384     15.36773        -0.246677      0.898777      0.241300
C      6.59456      5.61067     10.35284        -0.361097     -0.276122      0.240681
C      6.59456     15.36773     10.62556        -0.428192      0.559051     -0.003495
C     14.38384      5.61067     10.62556         0.450036     -0.336691      0.061462
C     14.38384     15.36773     10.35284         0.912251      0.263630     -0.056013
C     10.40319      3.19606      7.29314         0.005185      0.554284     -0.309213
C     10.35913      4.25547      6.23373        -0.004169     -0.502463      0.434126
C      0.08601      7.29314      7.29314        -0.012819     -0.901630     -0.532568
C      0.13007      6.23373      6.23373        -0.162025      0.869214      0.142337
C      0.08601      3.19606      3.19606        -0.012926      0.374622      0.379882
C      0.13007      4.25547      4.25547         0.057362     -0.185245     -0.619057
C     10.40319      7.29314      3.19606        -0.048244     -1.095570      0.754779
C     10.35913      6.23373      4.25547         0.011119      0.334799     -0.194674
C      7.29314     10.40319      3.19606        -1.189017     -0.078742      0.331086
C      6.23373     10.35913      4.25547         0.275564      0.028509     -0.661554
C      7.29314      0.08601      7.29314        -0.861548     -0.004064     -0.412096
C      6.23373      0.13007      6.23373         0.297907      0.048971      0.132097
C      3.19606      0.08601      3.19606         0.323741     -0.001474      0.419348
C      4.25547      0.13007      4.25547        -0.286554     -0.039974     -0.171172
C      3.19606     10.40319      7.29314         0.506443     -0.044710     -1.002716
C      4.25547     10.35913      6.23373        -0.296239     -0.061129      0.105228
C      3.19606      7.29314     10.40319         1.036699     -0.488119      0.003154
C      4.25547      6.23373     10.35913        -0.172139      0.167935      0.000004
C      7.29314      7.29314      0.08601        -0.449291     -0.279502     -0.007619
C      6.23373      6.23373      0.13007         0.215263      0.098993     -0.139318
C      3.19606      3.19606      0.08601         0.345740      0.788254     -0.009075
C      4.25547      4.25547      0.13007        -0.470122     -0.195019      0.048691
C      7.29314      3.19606     10.40319        -0.204767      0.527726      0.023482
C      6.23373      4.25547     10.35913         0.008704     -0.334108      0.037240
O     10.43466      3.58206      8.50569        -0.023217      0.134704      0.374611
O     10.54374     17.39634      8.50569         0.048412      0.065771      0.326528
O     10.54374      3.58206     12.47271         0.041801      0.201266     -0.571737
O     10.43466     17.39634     12.47271         0.025523      0.002195     -0.422214
O      8.50569     10.43466      3.58206         0.756070     -0.071684      0.043145
O      8.50569     10.54374     17.39634         0.865432      0.023030     -0.157724
O     12.47271     10.54374      3.58206        -0.348137      0.039669      0.073772
O     12.47271     10.43466     17.39634        -0.383565     -0.033874      0.039106
O      3.58206      8.50569     10.43466        -0.084835      0.313333     -0.077227
O     17.39634      8.50569     10.54374        -0.111007      0.443464      0.038754
O      3.58206     12.47271     10.54374         0.137282     -0.772998     -0.011582
O     17.39634     12.47271     10.43466        -0.244995     -0.649997     -0.013772
O      3.58206     10.43466      8.50569         0.122993     -0.040194      0.780710
O     17.39634     10.54374      8.50569         0.014512      0.040479      0.320259
O      3.58206     10.54374     12.47271         0.069467      0.017773     -0.460919
O     17.39634     10.43466     12.47271         0.021012      0.016238     -0.270462
O     10.43466      8.50569      3.58206        -0.066276      0.609129     -0.055383
O     10.54374      8.50569     17.39634         0.021757      0.903339     -0.215411
O     10.54374     12.47271      3.58206         0.063123     -0.367402      0.086872
O     10.43466     12.47271     17.39634        -0.056840     -0.635405     -0.195302
O      8.50569      3.58206     10.43466         0.342354      0.074479     -0.051842
O      8.50569     17.39634     10.54374         0.528200     -0.146287     -0.000632
O     12.47271      3.58206     10.54374        -0.382089      0.068326      0.033307
O     12.47271     17.39634     10.43466        -0.800837     -0.123915      0.056329
O     11.90042     11.90042     19.56718        -0.248940     -0.282088      0.235928
O     19.56718     19.56718     19.56718         0.295860      0.297054      0.246844
O     19.56718     11.90042     11.90042         0.231191     -0.301827     -0.280673
O     11.90042     19.56718     11.90042        -0.275967      0.180764     -0.266712
O      9.45224      1.03696      9.45224        -0.116893      0.101112     -0.080796
O      1.03696      9.45224      9.45224         0.139345     -0.142009     -0.170377
O      1.03696      1.03696      1.03696         0.130012      0.199707      0.003799
O      9.45224      9.45224      1.03696        -0.209811     -0.157403      0.048081
Zr     10.48920      2.52580     10.48920         0.010214     -0.237881      0.153216
Zr     10.48920     18.45260     10.48920        -0.300158      0.283648     -0.175757
Zr     10.48920     10.48920      2.52580         0.317826      0.423064     -0.223196
Zr     10.48920     10.48920     18.45260         0.016194      0.013461      0.482821
Zr      2.52580     10.48920     10.48920        -0.547596      0.053637      0.323016
Zr     18.45260     10.48920     10.48920         0.274808     -0.159822      0.012480
Pd      9.13302     14.55707      9.20808        -0.006514      0.024502      0.019297
Pd      8.42453     13.23366     13.80933         0.007778      0.013289      0.038115
Pd     12.11834     14.13069      8.65582        -0.041219     -0.034629      0.049780
Pd     12.27651     12.75607     10.89683        -0.004533      0.010330      0.004502
Pd     11.81909      7.08750     11.97995        -0.003958     -0.066459      0.018638
Pd     11.10742     15.31903     10.87559         0.032577     -0.013351      0.027310
Pd      9.64351     13.14027     11.44333        -0.019457     -0.014361     -0.072721
Pd     14.02790     12.40393      8.05399         0.018512      0.009475     -0.044933
Pd     11.60477     11.75857      6.78629         0.048225     -0.014806     -0.033130
Pd      7.53937      8.52867      7.20433        -0.051266      0.031002     -0.043518
Pd      8.67082     11.98892      6.92401        -0.040883      0.053124     -0.033921
Pd      9.81786      9.85283      8.03719        -0.030775     -0.000043      0.037982
Pd      8.48579     14.63658      6.55787         0.021064      0.018637     -0.002334
Pd     12.12846      9.06503      6.87643        -0.036732     -0.016609      0.009819
Pd      9.96735      9.97973      5.42867         0.006253      0.004815     -0.047852
Pd      6.93853      9.19075     12.18562        -0.014526      0.069942      0.002405
Pd     12.44554      6.53738      7.71408        -0.024907      0.012855      0.000867
Pd      5.59459     10.62660     10.11723         0.058384      0.000668     -0.021216
Pd      7.62345      6.64300     12.73852         0.009596      0.026853      0.001389
Ir     11.30364      9.56066     12.88840        -0.055739     -0.025075      0.102068
Ir     13.09919      9.22988     11.16165         0.186712      0.073437     -0.254095
Ir      9.16772      8.43653     13.78830        -0.028997     -0.029636     -0.023684
Ir     10.28280     10.37280     15.11750        -0.039137      0.024730      0.000015
Ir      7.10491     11.88775     11.85501        -0.016105     -0.039725      0.003762
Ir     14.46232     11.15935     10.37358        -0.088052     -0.077168      0.039705
Ir     12.31005     10.61119      9.12527         0.029637     -0.056906     -0.037222
Ir      8.93769     10.80683     12.92793        -0.047091     -0.000313      0.085982
Ir     10.04748     10.28830     10.66976         0.000889      0.021244     -0.106875
Ir     13.30864     11.23237     12.64815         0.030704      0.044921     -0.016458
Ir     11.10809     12.04500     13.39736         0.058787      0.068135     -0.045902
Ir      7.96853     11.71862      9.54248        -0.024491     -0.052833     -0.042665
Ir     11.34051      8.13088      9.51596         0.036172      0.022113     -0.060885
Ir      6.93744     13.46750      8.28165         0.024028     -0.007455      0.020777
Ir      9.12573      7.27426      8.83794         0.013099     -0.103124     -0.092917
Ir      7.80012      9.19449      9.72607        -0.151629      0.164317     -0.000597
Ir     10.37668     12.30433      9.00154         0.032714      0.056124      0.063619
Ir      9.36681      7.89418     11.28651        -0.034826     -0.068888      0.118358
Ir     13.79515      8.47967      8.85100        -0.034965      0.017929      0.093720
