152
# total energy = -1110.39236488 eVH     10.35389      5.87395      7.64558        -0.386320     -0.130747      1.146102
H     10.62451     15.10445      7.64558         0.328841      0.077839      0.919931
H     10.62451      5.87395     13.33282        -0.319128     -0.677294     -1.340599
H     10.35389     15.10445     13.33282        -0.587006      0.427877     -0.333066
H      7.64558     10.35389      5.87395         0.557533     -0.521775     -0.100767
H      7.64558     10.62451     15.10445         0.385266     -0.234523      0.043513
H     13.33282     10.62451      5.87395        -0.578842      0.646617     -0.048118
H     13.33282     10.35389     15.10445        -0.525442      0.387968      0.154118
H      5.87395      7.64558     10.35389         0.149405      0.555728      0.028015
H     15.10445      7.64558     10.62451         0.428983      1.020855      0.283636
H      5.87395     13.33282     10.62451        -0.220971     -0.502787      0.361836
H     15.10445     13.33282     10.35389         0.027821     -0.299628     -0.379918
H      5.87395     10.35389      7.64558        -0.102752     -0.410227      1.486427
H     15.10445     10.62451      7.64558         0.219420      0.513327      1.326321
H      5.87395     10.62451     13.33282        -0.216974     -0.369846     -1.205056
H     15.10445     10.35389     13.33282         0.611598      0.999286     -1.533327
H     10.35389      7.64558      5.87395        -0.583741      0.529440     -0.173579
H     10.62451      7.64558     15.10445        -0.134215      0.451922      0.158458
H     10.62451     13.33282      5.87395         0.869614     -1.330057     -0.313219
H     10.35389     13.33282     15.10445         0.226318     -0.562531     -0.105559
H      7.64558      5.87395     10.35389         0.720264      0.164080     -0.173073
H      7.64558     15.10445     10.62451         1.980132      0.750018      0.222379
H     13.33282      5.87395     10.62451        -2.657026     -0.907749     -0.511463
H     13.33282     15.10445     10.35389        -0.877798     -0.056252     -0.252706
H     12.45634     12.45634     19.01126         0.272001      0.257843     -0.227434
H     19.01126     19.01126     19.01126        -0.266777     -0.254830     -0.238765
H     19.01126     12.45634     12.45634        -0.284021      0.281641      0.184871
H     12.45634     19.01126     12.45634         0.256465     -0.250707      0.235719
C     10.35284      5.61067      6.59456         0.076464     -0.485134     -1.204779
C     10.62556     15.36773      6.59456         0.191392      0.754303     -0.811839
C     10.62556      5.61067     14.38384         0.181157     -0.296215      1.786071
C     10.35284     15.36773     14.38384         0.085768      0.383742      1.792844
C      6.59456     10.35284      5.61067        -1.137865     -0.110544     -0.895257
C      6.59456     10.62556     15.36773        -0.701756     -0.095298      0.794123
C     14.38384     10.62556      5.61067         0.838763     -0.111364     -0.991166
C     14.38384     10.35284     15.36773         1.178991      0.168326      1.098703
C      5.61067      6.59456     10.35284        -0.668341     -0.899864     -0.188378
C     15.36773      6.59456     10.62556         2.007537     -0.320211     -0.187713
C      5.61067     14.38384     10.62556        -1.568212     -0.013129     -0.141693
C     15.36773     14.38384     10.35284         0.484908      0.089467      0.000604
C      5.61067     10.35284      6.59456        -0.274748      0.212123     -1.352988
C     15.36773     10.62556      6.59456         0.295347     -0.264732     -0.981551
C      5.61067     10.62556     14.38384        -0.255593      0.446432      1.457807
C     15.36773     10.35284     14.38384         0.006199     -0.486176      1.944297
C     10.35284      6.59456      5.61067        -0.160272     -0.849052     -0.698023
C     10.62556      6.59456     15.36773        -0.118125     -0.717102      1.045524
C     10.62556     14.38384      5.61067        -0.501519      1.988530     -0.754566
C     10.35284     14.38384     15.36773        -0.260209      1.361011      0.502098
C      6.59456      5.61067     10.35284        -0.987768     -0.409985      0.094087
C      6.59456     15.36773     10.62556        -1.257715      0.369829     -0.333043
C     14.38384      5.61067     10.62556         1.271762     -1.301541      0.216048
C     14.38384     15.36773     10.35284         0.457990      0.310916      0.085829
C     10.40319      3.19606      7.29314         0.001188      0.305051     -0.110999
C     10.35913      4.25547      6.23373         0.142120     -0.574999      0.016078
C      0.08601      7.29314      7.29314        -0.053341     -0.280343     -0.420150
C      0.13007      6.23373      6.23373        -0.123289      0.670711      0.017530
C      0.08601      3.19606      3.19606        -0.105658      1.661878      0.165752
C      0.13007      4.25547      4.25547        -0.096545     -0.392607     -1.207880
C     10.40319      7.29314      3.19606         0.015830     -0.449102      0.121696
C     10.35913      6.23373      4.25547         0.264022      0.086392     -0.534634
C      7.29314     10.40319      3.19606        -1.696060      0.010874      0.324592
C      6.23373     10.35913      4.25547         0.669846      0.080930     -0.622632
C      7.29314      0.08601      7.29314        -0.410542     -0.015316     -0.317108
C      6.23373      0.13007      6.23373         0.725668     -0.058385      0.246306
C      3.19606      0.08601      3.19606         0.661063     -0.018388      0.180110
C      4.25547      0.13007      4.25547        -0.357686     -0.085478     -0.570008
C      3.19606     10.40319      7.29314         0.350843      0.023292     -0.319570
C      4.25547     10.35913      6.23373        -0.740563      0.077994      0.362956
C      3.19606      7.29314     10.40319         0.285514     -0.202860     -0.006593
C      4.25547      6.23373     10.35913         0.042446      0.633822      0.091589
C      7.29314      7.29314      0.08601        -0.716331     -0.610386     -0.027401
C      6.23373      6.23373      0.13007         0.902776      1.124145     -0.065991
C      3.19606      3.19606      0.08601         0.823815      0.514220      0.001437
C      4.25547      4.25547      0.13007        -0.326687     -1.766776     -0.130079
C      7.29314      3.19606     10.40319        -0.325009      0.271046     -0.004529
C      6.23373      4.25547     10.35913         0.508219     -0.021193      0.230864
O     10.43466      3.58206      8.50569        -0.048600      0.186865      0.259592
O     10.54374     17.39634      8.50569         0.042290     -0.236449      0.486480
O     10.54374      3.58206     12.47271         0.083899     -0.075263     -0.023080
O     10.43466     17.39634     12.47271        -0.023126     -0.141647     -0.268966
O      8.50569     10.43466      3.58206         0.992979      0.189762      0.377212
O      8.50569     10.54374     17.39634         0.579623      0.084369     -0.229685
O     12.47271     10.54374      3.58206        -0.413876     -0.040975      0.181931
O     12.47271     10.43466     17.39634        -0.506826     -0.067696     -0.193041
O      3.58206      8.50569     10.43466         0.184527      0.423498     -0.028860
O     17.39634      8.50569     10.54374        -0.230497      0.712881      0.046137
O      3.58206     12.47271     10.54374         0.162225     -0.682295      0.026219
O     17.39634     12.47271     10.43466        -0.186657     -0.475023     -0.010460
O      3.58206     10.43466      8.50569         0.231087     -0.061771      0.406053
O     17.39634     10.54374      8.50569        -0.171853      0.037321      0.412500
O      3.58206     10.54374     12.47271         0.148348      0.021383     -0.303962
O     17.39634     10.43466     12.47271         0.081169     -0.051705     -0.070748
O     10.43466      8.50569      3.58206         0.004862      0.273456      0.183676
O     10.54374      8.50569     17.39634         0.069646      0.426563     -0.174463
O     10.54374     12.47271      3.58206        -0.221990     -0.974738      0.330238
O     10.43466     12.47271     17.39634        -0.082245     -0.450908     -0.245343
O      8.50569      3.58206     10.43466         0.489147      0.197419     -0.010007
O      8.50569     17.39634     10.54374         0.665229     -0.203515      0.022230
O     12.47271      3.58206     10.54374        -0.747212      0.280538      0.038080
O     12.47271     17.39634     10.43466        -0.432404     -0.205945     -0.043675
O     11.90042     11.90042     19.56718        -0.347197     -0.307316      0.260925
O     19.56718     19.56718     19.56718         0.324210      0.311637      0.284084
O     19.56718     11.90042     11.90042         0.274599     -0.273710     -0.138296
O     11.90042     19.56718     11.90042        -0.305251      0.283086     -0.233187
O      9.45224      1.03696      9.45224        -0.061274      0.073171     -0.045197
O      1.03696      9.45224      9.45224         0.035811     -0.075691     -0.070124
O      1.03696      1.03696      1.03696         0.063612      0.149912      0.095509
O      9.45224      9.45224      1.03696        -0.143253     -0.098556      0.095846
Zr     10.48920      2.52580     10.48920         0.164128     -0.173398     -0.168020
Zr     10.48920     18.45260     10.48920        -0.101545      0.187472     -0.050912
Zr     10.48920     10.48920      2.52580         0.344013     -0.310459     -0.205055
Zr     10.48920     10.48920     18.45260         0.014918     -0.088590      0.199993
Zr      2.52580     10.48920     10.48920        -0.071900      0.179834     -0.052513
Zr     18.45260     10.48920     10.48920         0.146964     -0.132915     -0.252873
Ir     12.03808     12.48369     10.45463         0.003520     -0.006734     -0.005346
Ir     11.21911      7.41325     10.24298         0.007616     -0.000216     -0.018446
Ir      8.85731      7.34867     11.52253         0.004391     -0.007312     -0.012164
Ir      7.46114     11.64779      7.65747        -0.008720     -0.002318     -0.000043
Ir     11.59569     12.07199      7.11207         0.002894     -0.005429     -0.003610
Ir     13.78534      8.99341      7.52155         0.005304     -0.002067     -0.008918
Ir     12.47084     13.95218      8.40672        -0.002335     -0.001674     -0.003854
Ir      9.74014     11.25437      5.53890         0.003704     -0.003147     -0.006912
Ir      9.07408     13.44176      7.07706        -0.000658     -0.007106     -0.000920
Ir      9.26564      9.67312      7.49849        -0.004811      0.006510     -0.005490
Ir     13.28638      7.03561     11.95955         0.000301     -0.005808      0.002488
Ir     13.63976      7.04208      9.10714         0.011187      0.005470     -0.008750
Ir     11.04535      7.59041     12.79827        -0.001028     -0.002257     -0.014378
Ir     13.59766     11.56449      8.75062        -0.005250      0.000484     -0.000280
Ir     11.50214      9.62111      6.21820        -0.002186     -0.008618     -0.005745
Ir      7.16148      9.14537      8.91885         0.002399     -0.006258     -0.005613
Ir     14.06043     11.43982     11.64608         0.000485      0.003129     -0.004019
Ir     11.66148      9.82522      8.85885        -0.002121     -0.010016     -0.006989
Ir      9.44413      9.49869     10.22439         0.009066      0.000811     -0.009781
Ir     13.88033      9.41319     10.16618         0.003827      0.000895     -0.008171
Ir     13.83832      9.16297     12.87835         0.009486      0.000435     -0.007585
Ir     11.70355      9.75810     11.53719         0.001237     -0.002552     -0.011084
Ir      9.91732     11.72805      8.96161         0.001868     -0.017776     -0.000585
Ir      9.11149      7.43388      8.76740         0.011707      0.000557     -0.018392
Ir     11.63980      7.52112      7.71957         0.026740     -0.015559     -0.013192
Ir      9.25624      9.46567     13.00220         0.000342     -0.007550     -0.003018
Ir      7.50550     13.89871      8.99428        -0.003687     -0.001590      0.001526
Ir     10.86238     14.09799     11.95195        -0.006210     -0.001657      0.005974
Ir     10.11051     14.14411      9.51486        -0.000190      0.000908     -0.001076
Ir      9.79042     11.67713     11.72279         0.001204     -0.005996     -0.003470
Ir      7.59074     11.56013     10.20580         0.001105     -0.003262     -0.004052
Ir      8.34331     13.73223     11.58163        -0.002658     -0.003594     -0.001449
Ir      7.52548     11.53979     12.82088        -0.002175     -0.008457     -0.000223
Ir      9.77917     11.58872     14.34188         0.003568     -0.010730      0.000444
Ir     13.46418     13.88404     12.18561        -0.004751     -0.003289     -0.001100
Ir     11.98950     12.04191     13.07634         0.004381     -0.003166     -0.002989
Ir     11.58673      9.77807     14.17614         0.003968     -0.012156     -0.008737
Ir      7.15834      9.34442     11.47767         0.000458     -0.007847     -0.005332
