26
# total energy = -177.58782816 eVH      0.08069      6.30466      7.50000        -0.005190     -0.017523     -0.000000
H      2.97920      1.80554      7.50000         0.017208     -0.011446     -0.000000
H      5.46884      5.37954      7.50000        -0.001125      0.002970     -0.000000
H      8.39102     -2.59102      7.50000         0.005190      0.017523     -0.000000
H      5.49251      1.90810      7.50000        -0.017208      0.011446     -0.000000
H      3.00287     -1.66589      7.50000         0.001125     -0.002970     -0.000000
C      7.54757      2.58200      7.50000        -0.003425     -0.003356      0.000000
C      1.43183     -0.23828      7.50000        -0.017774      0.009083      0.000000
C      7.96479     -4.69901      7.50000         0.005862      0.000453     -0.000000
C      0.92415      1.13164      7.50000         0.003425      0.003356      0.000000
C      7.03989      3.95192      7.50000         0.017774     -0.009083     -0.000000
C      0.50692      8.41266      7.50000        -0.005862     -0.000453     -0.000000
C      7.58820     -3.32389      7.50000         0.012378     -0.012672     -0.000000
C      6.53096      1.57897      7.50000        -0.014397      0.006963     -0.000000
C      2.79543     -0.58933      7.50000        -0.007570      0.005443     -0.000000
C      0.88351      7.03754      7.50000        -0.012378      0.012672      0.000000
C      1.94075      2.13468      7.50000         0.014397     -0.006963     -0.000000
C      5.67628      4.30297      7.50000         0.007570     -0.005443      0.000000
O      6.39509     -2.80812      7.50000         0.016944     -0.001532      0.000000
O      6.72801      0.29653      7.50000         0.002315      0.015183     -0.000000
O      3.89195      0.12592      7.50000         0.013858     -0.018883     -0.000000
O      2.07662      6.52176      7.50000        -0.016944      0.001532      0.000000
O      1.74370      3.41711      7.50000        -0.002315     -0.015183     -0.000000
O      4.57976      3.58772      7.50000        -0.013858      0.018883      0.000000
Ir      5.42238     -1.15870      7.50000         0.018217      0.006172     -0.000000
Ir      3.04933      4.87235      7.50000        -0.018217     -0.006172     -0.000000
