152
# total energy = -1002.90055884 eVH     10.35389      5.87395      7.64558        -0.034116      0.173497      1.000667
H     10.62451     15.10445      7.64558        -0.010610     -0.108131      1.079767
H     10.62451      5.87395     13.33282         0.052601      0.013385     -1.084967
H     10.35389     15.10445     13.33282        -0.128502     -0.184695     -0.914572
H      7.64558     10.35389      5.87395         0.892288      0.312122     -0.250647
H      7.64558     10.62451     15.10445         0.747856      0.333147      0.046053
H     13.33282     10.62451      5.87395        -0.526557      0.135800      0.012318
H     13.33282     10.35389     15.10445        -0.690340     -0.179746      0.052913
H      5.87395      7.64558     10.35389        -0.313841      2.149246      0.217333
H     15.10445      7.64558     10.62451         0.040591      1.374959     -0.007340
H      5.87395     13.33282     10.62451         0.082079     -0.933647     -0.090690
H     15.10445     13.33282     10.35389         0.163397     -1.209827     -0.383847
H      5.87395     10.35389      7.64558        -0.785648      0.310487      1.326939
H     15.10445     10.62451      7.64558         0.256613      0.758999      1.657797
H      5.87395     10.62451     13.33282        -0.419690      0.508786     -1.278182
H     15.10445     10.35389     13.33282         1.308063     -0.077221     -1.178490
H     10.35389      7.64558      5.87395         0.487963      1.276626     -0.056179
H     10.62451      7.64558     15.10445         0.331150      0.769859     -0.063287
H     10.62451     13.33282      5.87395        -0.363652     -0.882362      0.031903
H     10.35389     13.33282     15.10445        -0.123778     -0.479679     -0.159742
H      7.64558      5.87395     10.35389         0.835812     -0.162548     -0.028497
H      7.64558     15.10445     10.62451         0.541326     -0.175047     -0.049384
H     13.33282      5.87395     10.62451        -1.050458      0.034819      0.306692
H     13.33282     15.10445     10.35389        -0.426317     -0.085286     -0.059464
H     12.45634     12.45634     19.01126         0.264330      0.234578     -0.245777
H     19.01126     19.01126     19.01126        -0.259399     -0.252947     -0.235043
H     19.01126     12.45634     12.45634        -0.257100      0.267081      0.232303
H     12.45634     19.01126     12.45634         0.265219     -0.263626      0.226639
C     10.35284      5.61067      6.59456        -0.110507     -0.968735     -0.984675
C     10.62556     15.36773      6.59456        -0.027078      0.455331     -0.938795
C     10.62556      5.61067     14.38384        -0.138080     -0.608947      1.455404
C     10.35284     15.36773     14.38384         0.139051      0.295599      0.940337
C      6.59456     10.35284      5.61067        -1.701535      0.173334     -1.019904
C      6.59456     10.62556     15.36773        -1.052893      0.241927      0.812320
C     14.38384     10.62556      5.61067         1.461557      0.166122     -0.951504
C     14.38384     10.35284     15.36773         1.268879      0.019387      0.807259
C      5.61067      6.59456     10.35284        -0.667855     -1.393762     -0.008378
C     15.36773      6.59456     10.62556         0.561581     -0.538535      0.085240
C      5.61067     14.38384     10.62556        -0.348196      1.033693      0.047382
C     15.36773     14.38384     10.35284         0.317554      1.445413      0.068290
C      5.61067     10.35284      6.59456        -0.376331     -0.010842     -1.626617
C     15.36773     10.62556      6.59456         0.495828      0.026998     -1.374540
C      5.61067     10.62556     14.38384        -0.268800     -0.055500      1.348682
C     15.36773     10.35284     14.38384         0.079184     -0.038714      1.802209
C     10.35284      6.59456      5.61067        -0.000114     -1.153389     -0.675338
C     10.62556      6.59456     15.36773         0.067295     -0.713238      0.622983
C     10.62556     14.38384      5.61067         0.083705      0.718740     -0.498543
C     10.35284     14.38384     15.36773        -0.035629      0.452081      0.406589
C      6.59456      5.61067     10.35284        -0.430575     -1.197232      0.023391
C      6.59456     15.36773     10.62556        -0.682047      0.585957      0.010570
C     14.38384      5.61067     10.62556         0.620761     -0.805694     -0.126986
C     14.38384     15.36773     10.35284         0.408801      0.557871     -0.057833
C     10.40319      3.19606      7.29314        -0.027254      0.325850     -0.913098
C     10.35913      4.25547      6.23373        -0.059953     -0.518073      0.172987
C      0.08601      7.29314      7.29314        -0.015760     -0.558228     -0.328003
C      0.13007      6.23373      6.23373        -0.046356      0.397037      0.364994
C      0.08601      3.19606      3.19606         0.001398      0.401119      0.530137
C      0.13007      4.25547      4.25547        -0.005266     -0.446219     -0.404032
C     10.40319      7.29314      3.19606        -0.050136     -0.756779      0.256759
C     10.35913      6.23373      4.25547         0.008008      0.270301     -0.623909
C      7.29314     10.40319      3.19606        -0.687690     -0.014392      0.150301
C      6.23373     10.35913      4.25547         0.351342     -0.034837     -0.410576
C      7.29314      0.08601      7.29314        -0.626731     -0.073002     -0.302099
C      6.23373      0.13007      6.23373         0.573310     -0.162288      0.299368
C      3.19606      0.08601      3.19606         0.701829     -0.047878      0.221610
C      4.25547      0.13007      4.25547        -0.471369     -0.262275     -0.438796
C      3.19606     10.40319      7.29314         0.383193      0.003388     -0.169175
C      4.25547     10.35913      6.23373        -0.281158     -0.024997      0.380272
C      3.19606      7.29314     10.40319         0.295459     -0.428267      0.012427
C      4.25547      6.23373     10.35913        -0.857207      0.165716      0.076404
C      7.29314      7.29314      0.08601        -0.413540     -0.376227     -0.020726
C      6.23373      6.23373      0.13007         0.721054      0.085943     -0.009872
C      3.19606      3.19606      0.08601         0.774113      0.317667     -0.018229
C      4.25547      4.25547      0.13007        -0.268220     -0.712752     -0.056667
C      7.29314      3.19606     10.40319        -0.393100      0.457623      0.016321
C      6.23373      4.25547     10.35913         0.437185     -0.559624      0.082387
O     10.43466      3.58206      8.50569         0.085266      0.245419      0.758061
O     10.54374     17.39634      8.50569         0.016465     -0.141807      0.401851
O     10.54374      3.58206     12.47271         0.093779      0.176096     -0.542435
O     10.43466     17.39634     12.47271        -0.031734     -0.083062     -0.340818
O      8.50569     10.43466      3.58206         0.686064     -0.082762      0.222028
O      8.50569     10.54374     17.39634         0.683160     -0.028146     -0.240229
O     12.47271     10.54374      3.58206        -0.707051      0.079278      0.259469
O     12.47271     10.43466     17.39634        -0.510286      0.019313     -0.220275
O      3.58206      8.50569     10.43466         0.178915      0.583886     -0.029156
O     17.39634      8.50569     10.54374        -0.151972      0.525173      0.038386
O      3.58206     12.47271     10.54374         0.081000     -0.408241      0.034011
O     17.39634     12.47271     10.43466        -0.164532     -0.554032     -0.032442
O      3.58206     10.43466      8.50569         0.155932     -0.025135      0.323786
O     17.39634     10.54374      8.50569        -0.087294      0.077503      0.361776
O      3.58206     10.54374     12.47271         0.074726      0.053643     -0.295927
O     17.39634     10.43466     12.47271        -0.063810     -0.021996     -0.222993
O     10.43466      8.50569      3.58206        -0.089241      0.710016      0.186703
O     10.54374      8.50569     17.39634        -0.024264      0.621113     -0.193215
O     10.54374     12.47271      3.58206         0.035590     -0.495805      0.106525
O     10.43466     12.47271     17.39634        -0.020399     -0.358846     -0.028006
O      8.50569      3.58206     10.43466         0.601016      0.144662     -0.043947
O      8.50569     17.39634     10.54374         0.578493     -0.176690      0.031455
O     12.47271      3.58206     10.54374        -0.749603      0.140911      0.022676
O     12.47271     17.39634     10.43466        -0.534267     -0.140755     -0.031057
O     11.90042     11.90042     19.56718        -0.307118     -0.245973      0.265848
O     19.56718     19.56718     19.56718         0.302847      0.311975      0.261880
O     19.56718     11.90042     11.90042         0.314346     -0.302646     -0.244618
O     11.90042     19.56718     11.90042        -0.319768      0.328620     -0.228895
O      9.45224      1.03696      9.45224        -0.020140      0.100451     -0.088253
O      1.03696      9.45224      9.45224         0.042215     -0.016797     -0.098003
O      1.03696      1.03696      1.03696         0.031212      0.095347      0.093818
O      9.45224      9.45224      1.03696        -0.052793     -0.027452      0.121354
Zr     10.48920      2.52580     10.48920        -0.177731     -0.322763      0.135018
Zr     10.48920     18.45260     10.48920         0.081799      0.087240     -0.015371
Zr     10.48920     10.48920      2.52580         0.042042      0.063382     -0.366820
Zr     10.48920     10.48920     18.45260         0.024479     -0.048212      0.271555
Zr      2.52580     10.48920     10.48920        -0.080941     -0.125684     -0.006715
Zr     18.45260     10.48920     10.48920         0.095465     -0.006852     -0.037923
Pd     11.88214      8.53874     10.33272        -0.092065     -0.003881     -0.140995
Pd      7.23717     10.00191     10.43610         0.023186     -0.102276      0.033383
Pd      7.25847     12.35151     11.77637        -0.090022     -0.060080      0.042993
Pd     12.04183     13.36530      7.43708        -0.029461     -0.012718      0.072792
Pd     11.51097      8.23137      7.54841         0.019027     -0.003292      0.049149
Pd      8.80401      7.32382      7.18628        -0.064952     -0.038387      0.035199
Pd     11.64379     11.00253      6.24693        -0.003876      0.084315     -0.002043
Pd     13.81172      9.33374      7.62639        -0.137903     -0.147914      0.085768
Pd      9.50523     11.84414      7.54900         0.073045      0.075691     -0.039731
Pd      7.08152      7.59009     11.84197        -0.034312     -0.109387      0.066748
Pd      6.94629      7.64349      8.85806         0.045419      0.086547      0.030215
Pd      7.49957      9.81454     13.08380        -0.020676     -0.060163      0.103607
Pd     11.40349      5.98418      9.17333        -0.044418      0.048929      0.048203
Pd      9.52638      9.61247      5.98763        -0.041285     -0.005664     -0.019083
Pd      9.33573     14.16307      8.85599         0.006142     -0.088297      0.120669
Pd     11.48391      6.37118     11.79493        -0.045281      0.073461     -0.010884
Pd      9.68371      9.35512      9.00300         0.269419     -0.094337      0.120782
Pd      9.41347     11.73484     10.22631        -0.199927      0.074959     -0.115532
Pd      9.32038      7.10194     10.32323         0.085677      0.070848      0.019863
Pd      9.15905      7.28960     13.34725        -0.037818      0.058823      0.076520
Pd      9.56383      9.37616     11.67079         0.035152     -0.172832     -0.080340
Pd     11.83581     10.88124      8.86567        -0.070863      0.068793     -0.162638
Pd      7.18434     12.45737      9.00918         0.038979     -0.056638     -0.010659
Pd      7.59787      9.96833      7.87148        -0.122480     -0.076821      0.048834
Pd     13.77589      7.11004      8.92992         0.028997      0.075179     -0.095718
Pd     13.80788      7.84161     12.11423         0.028532     -0.061442      0.097080
Pd      9.46241     11.75922     13.07530         0.048941     -0.012145      0.062604
Pd     14.08475     12.28105      8.76246        -0.028349     -0.017533     -0.033542
Pd     13.50815     10.41828     12.80652        -0.234158      0.021207     -0.177813
Pd     14.08975      9.98725     10.25457        -0.045928      0.077457     -0.008161
Pd     11.54285     11.10260     11.46988         0.231670     -0.134475      0.108471
Pd     11.62604     13.41236     10.05037        -0.051094      0.035674     -0.023372
Pd     13.77432     12.62853     11.44139        -0.062905     -0.136525      0.041145
Pd     11.71098     13.45699     12.84767        -0.044965     -0.046659      0.076524
Pd     11.63694     11.31106     14.49386        -0.033667      0.047492     -0.094059
Pd     11.55118      8.74515     13.24770        -0.074963     -0.026620     -0.129161
Pd      9.55866      9.63137     14.81377        -0.004600      0.021341      0.001384
Pd      9.40054     14.05062     11.53069        -0.017074      0.001698      0.071153
