152
# total energy = -1110.39353665 eVH     10.35389      5.87395      7.64558        -0.390320     -0.129532      1.156290
H     10.62451     15.10445      7.64558         0.325924      0.077533      0.917127
H     10.62451      5.87395     13.33282        -0.318302     -0.675561     -1.334184
H     10.35389     15.10445     13.33282        -0.584338      0.429031     -0.335521
H      7.64558     10.35389      5.87395         0.558652     -0.520275     -0.101874
H      7.64558     10.62451     15.10445         0.386503     -0.233930      0.043245
H     13.33282     10.62451      5.87395        -0.582166      0.647838     -0.049941
H     13.33282     10.35389     15.10445        -0.524932      0.384990      0.152544
H      5.87395      7.64558     10.35389         0.149333      0.557747      0.027266
H     15.10445      7.64558     10.62451         0.427962      1.025918      0.286748
H      5.87395     13.33282     10.62451        -0.220642     -0.504933      0.362080
H     15.10445     13.33282     10.35389         0.027836     -0.299148     -0.379866
H      5.87395     10.35389      7.64558        -0.105500     -0.415430      1.491983
H     15.10445     10.62451      7.64558         0.219947      0.517484      1.328996
H      5.87395     10.62451     13.33282        -0.219620     -0.370974     -1.207989
H     15.10445     10.35389     13.33282         0.613871      1.006600     -1.533868
H     10.35389      7.64558      5.87395        -0.588011      0.532509     -0.172238
H     10.62451      7.64558     15.10445        -0.133144      0.446497      0.155583
H     10.62451     13.33282      5.87395         0.868217     -1.324912     -0.312297
H     10.35389     13.33282     15.10445         0.222638     -0.562687     -0.107248
H      7.64558      5.87395     10.35389         0.721793      0.162643     -0.175515
H      7.64558     15.10445     10.62451         1.981192      0.746716      0.224495
H     13.33282      5.87395     10.62451        -2.650594     -0.899519     -0.518834
H     13.33282     15.10445     10.35389        -0.877351     -0.057010     -0.252690
H     12.45634     12.45634     19.01126         0.271927      0.257749     -0.227481
H     19.01126     19.01126     19.01126        -0.266823     -0.254861     -0.238847
H     19.01126     12.45634     12.45634        -0.284194      0.281659      0.184680
H     12.45634     19.01126     12.45634         0.256487     -0.250714      0.235680
C     10.35284      5.61067      6.59456         0.076674     -0.481037     -1.200852
C     10.62556     15.36773      6.59456         0.193425      0.753782     -0.810941
C     10.62556      5.61067     14.38384         0.179561     -0.294386      1.783988
C     10.35284     15.36773     14.38384         0.084152      0.382843      1.790294
C      6.59456     10.35284      5.61067        -1.138699     -0.110849     -0.899636
C      6.59456     10.62556     15.36773        -0.701852     -0.094494      0.797844
C     14.38384     10.62556      5.61067         0.834304     -0.111877     -0.988714
C     14.38384     10.35284     15.36773         1.175394      0.168261      1.096789
C      5.61067      6.59456     10.35284        -0.668389     -0.903718     -0.189377
C     15.36773      6.59456     10.62556         2.012639     -0.327724     -0.188151
C      5.61067     14.38384     10.62556        -1.568381     -0.014337     -0.142280
C     15.36773     14.38384     10.35284         0.484498      0.091406     -0.000790
C      5.61067     10.35284      6.59456        -0.274469      0.214947     -1.354964
C     15.36773     10.62556      6.59456         0.296889     -0.268641     -0.978624
C      5.61067     10.62556     14.38384        -0.256194      0.449043      1.458279
C     15.36773     10.35284     14.38384        -0.000466     -0.492723      1.944707
C     10.35284      6.59456      5.61067        -0.157677     -0.844105     -0.700341
C     10.62556      6.59456     15.36773        -0.118899     -0.712319      1.044022
C     10.62556     14.38384      5.61067        -0.501014      1.985430     -0.751182
C     10.35284     14.38384     15.36773        -0.257966      1.353748      0.503862
C      6.59456      5.61067     10.35284        -0.990862     -0.409530      0.095357
C      6.59456     15.36773     10.62556        -1.253734      0.368859     -0.333315
C     14.38384      5.61067     10.62556         1.268742     -1.304135      0.221087
C     14.38384     15.36773     10.35284         0.458586      0.309952      0.087191
C     10.40319      3.19606      7.29314         0.001100      0.304921     -0.112383
C     10.35913      4.25547      6.23373         0.142227     -0.580718      0.016524
C      0.08601      7.29314      7.29314        -0.053504     -0.278234     -0.419491
C      0.13007      6.23373      6.23373        -0.123837      0.666161      0.016001
C      0.08601      3.19606      3.19606        -0.105578      1.665108      0.165008
C      0.13007      4.25547      4.25547        -0.098482     -0.391393     -1.204680
C     10.40319      7.29314      3.19606         0.015814     -0.451894      0.121367
C     10.35913      6.23373      4.25547         0.264189      0.087149     -0.537912
C      7.29314     10.40319      3.19606        -1.699169      0.011268      0.324804
C      6.23373     10.35913      4.25547         0.672049      0.081102     -0.624016
C      7.29314      0.08601      7.29314        -0.411278     -0.015762     -0.318504
C      6.23373      0.13007      6.23373         0.731056     -0.058781      0.244187
C      3.19606      0.08601      3.19606         0.661494     -0.018687      0.179653
C      4.25547      0.13007      4.25547        -0.355825     -0.086582     -0.575132
C      3.19606     10.40319      7.29314         0.348459      0.023762     -0.320107
C      4.25547     10.35913      6.23373        -0.742339      0.079488      0.362269
C      3.19606      7.29314     10.40319         0.284555     -0.202041     -0.006644
C      4.25547      6.23373     10.35913         0.042007      0.632258      0.091554
C      7.29314      7.29314      0.08601        -0.715570     -0.609946     -0.028504
C      6.23373      6.23373      0.13007         0.903999      1.124095     -0.065150
C      3.19606      3.19606      0.08601         0.824671      0.514785      0.000326
C      4.25547      4.25547      0.13007        -0.325354     -1.769260     -0.130725
C      7.29314      3.19606     10.40319        -0.324471      0.270601     -0.004669
C      6.23373      4.25547     10.35913         0.508897     -0.020506      0.231157
O     10.43466      3.58206      8.50569        -0.048693      0.187301      0.259892
O     10.54374     17.39634      8.50569         0.042242     -0.236828      0.486827
O     10.54374      3.58206     12.47271         0.083881     -0.076785     -0.021621
O     10.43466     17.39634     12.47271        -0.023225     -0.141684     -0.268112
O      8.50569     10.43466      3.58206         0.993563      0.190400      0.375948
O      8.50569     10.54374     17.39634         0.580463      0.084277     -0.229808
O     12.47271     10.54374      3.58206        -0.412905     -0.041195      0.181173
O     12.47271     10.43466     17.39634        -0.505604     -0.067447     -0.192516
O      3.58206      8.50569     10.43466         0.184649      0.422547     -0.028751
O     17.39634      8.50569     10.54374        -0.230460      0.712143      0.046415
O      3.58206     12.47271     10.54374         0.162231     -0.682759      0.026376
O     17.39634     12.47271     10.43466        -0.186901     -0.474666     -0.010267
O      3.58206     10.43466      8.50569         0.232000     -0.062132      0.406659
O     17.39634     10.54374      8.50569        -0.172062      0.037278      0.412863
O      3.58206     10.54374     12.47271         0.148531      0.021321     -0.303948
O     17.39634     10.43466     12.47271         0.082203     -0.052003     -0.069534
O     10.43466      8.50569      3.58206         0.005402      0.273489      0.183913
O     10.54374      8.50569     17.39634         0.069465      0.425195     -0.173744
O     10.54374     12.47271      3.58206        -0.221988     -0.975370      0.328607
O     10.43466     12.47271     17.39634        -0.082087     -0.451469     -0.245434
O      8.50569      3.58206     10.43466         0.488366      0.197454     -0.009731
O      8.50569     17.39634     10.54374         0.664894     -0.204174      0.022391
O     12.47271      3.58206     10.54374        -0.747699      0.280890      0.038401
O     12.47271     17.39634     10.43466        -0.431942     -0.206372     -0.043544
O     11.90042     11.90042     19.56718        -0.347347     -0.307289      0.261166
O     19.56718     19.56718     19.56718         0.323972      0.311538      0.284335
O     19.56718     11.90042     11.90042         0.274240     -0.273445     -0.138031
O     11.90042     19.56718     11.90042        -0.305292      0.282656     -0.233112
O      9.45224      1.03696      9.45224        -0.061680      0.073277     -0.044854
O      1.03696      9.45224      9.45224         0.035720     -0.076002     -0.069851
O      1.03696      1.03696      1.03696         0.064068      0.150876      0.094792
O      9.45224      9.45224      1.03696        -0.144339     -0.099434      0.095172
Zr     10.48920      2.52580     10.48920         0.165063     -0.174269     -0.168619
Zr     10.48920     18.45260     10.48920        -0.101693      0.188192     -0.051509
Zr     10.48920     10.48920      2.52580         0.345573     -0.310659     -0.206133
Zr     10.48920     10.48920     18.45260         0.015894     -0.088960      0.199227
Zr      2.52580     10.48920     10.48920        -0.072426      0.180475     -0.052545
Zr     18.45260     10.48920     10.48920         0.147770     -0.133573     -0.253470
Ir     12.03720     12.48308     10.45441         0.012184     -0.008808     -0.016903
Ir     11.22188      7.41288     10.23628         0.007966     -0.001783     -0.017210
Ir      8.85889      7.34636     11.51743         0.001570     -0.006034     -0.013172
Ir      7.45806     11.64747      7.65751        -0.007255     -0.000563     -0.001649
Ir     11.59595     12.06979      7.11075         0.003953     -0.003244     -0.001738
Ir     13.78747      8.99353      7.51764         0.007236      0.001529     -0.012032
Ir     12.46957     13.95150      8.40544        -0.002465     -0.004784     -0.003214
Ir      9.74180     11.25345      5.53629         0.001642     -0.001460     -0.008925
Ir      9.07366     13.43865      7.07738        -0.002139     -0.008394      0.001381
Ir      9.26360      9.67489      7.49564        -0.006044      0.002859     -0.003406
Ir     13.28625      7.03403     11.96099        -0.002232     -0.003109      0.004022
Ir     13.64535      7.04284      9.10553         0.014181     -0.002075     -0.002206
Ir     11.04511      7.58932     12.79245         0.002366     -0.005216     -0.012035
Ir     13.59627     11.56415      8.74980        -0.010109      0.000815      0.003077
Ir     11.50130      9.61772      6.21612         0.000847     -0.010009     -0.007081
Ir      7.16235      9.14292      8.91702         0.005503     -0.005575     -0.003451
Ir     14.06112     11.44024     11.64455         0.000908     -0.001051     -0.007297
Ir     11.66186      9.82101      8.85507         0.003993     -0.005970     -0.008498
Ir      9.44553      9.49700     10.22200        -0.001645     -0.000583     -0.006636
Ir     13.88178      9.41371     10.16345         0.002358      0.004116     -0.005528
Ir     13.84160      9.16255     12.87479         0.008544     -0.003089     -0.009323
Ir     11.70497      9.75711     11.53372         0.007037     -0.001453     -0.008564
Ir      9.91846     11.72592      8.96054         0.002523     -0.007535     -0.000824
Ir      9.11603      7.43449      8.76045         0.008963      0.001399     -0.017504
Ir     11.64899      7.51498      7.71330         0.018415     -0.016131     -0.016451
Ir      9.25614      9.46294     13.00052        -0.000683      0.000093     -0.003371
Ir      7.50461     13.89805      8.99450        -0.001544     -0.001739     -0.001390
Ir     10.86059     14.09564     11.95261        -0.008838      0.005934      0.010461
Ir     10.11062     14.14226      9.51434        -0.002184     -0.001462     -0.004664
Ir      9.79051     11.67508     11.72223        -0.011157     -0.005616      0.001739
Ir      7.59125     11.55861     10.20490         0.005261     -0.005411      0.002082
Ir      8.34241     13.73050     11.58124         0.000903     -0.009362     -0.000372
Ir      7.52543     11.53666     12.82030         0.005632     -0.006857     -0.006557
Ir      9.78093     11.58462     14.34178         0.006541     -0.014075     -0.004526
Ir     13.46271     13.88337     12.18508        -0.000068      0.001069     -0.001317
Ir     11.98999     12.03997     13.07534        -0.001596     -0.008715      0.005390
Ir     11.58838      9.77362     14.17242         0.002850     -0.007212     -0.011059
Ir      7.15901      9.34165     11.47535         0.005015     -0.004013     -0.007780
