13
# total energy = -105.61452527 eVC      1.26141      6.81152      0.00000         0.114405      0.068093      0.000000
C      3.78587      6.81152      0.00000        -0.114405      0.068093      0.000000
C      3.78587      1.42099      0.00000        -0.114405     -0.068093     -0.000000
C      1.26141      1.42099     -0.00000         0.114405     -0.068093     -0.000000
C     -0.00000      7.52510      0.00000         0.000000     -0.037398     -0.000000
C     -0.00000      0.70741      0.00000         0.000000      0.037398      0.000000
C      2.52364      7.52128      0.00000         0.000000     -0.060317      0.000000
C      2.52364      0.71123     -0.00000         0.000000      0.060317      0.000000
O      1.20200      2.72069     -0.00000        -0.025667      0.016297      0.000000
O      3.84528      2.72069      0.00000         0.025667      0.016297     -0.000000
O      3.84528      5.51182      0.00000         0.025667     -0.016297     -0.000000
O      1.20200      5.51182     -0.00000        -0.025667     -0.016297      0.000000
Ir      2.52364      4.11625      0.00000         0.000000      0.000000      0.000000
