152
# total energy = -1110.37918711 eVH     10.35389      5.87395      7.64558        -0.357023     -0.138857      1.075762
H     10.62451     15.10445      7.64558         0.356567      0.081285      0.941637
H     10.62451      5.87395     13.33282        -0.321658     -0.697621     -1.384013
H     10.35389     15.10445     13.33282        -0.611540      0.415806     -0.328254
H      7.64558     10.35389      5.87395         0.540860     -0.527729     -0.088090
H      7.64558     10.62451     15.10445         0.376401     -0.240809      0.045904
H     13.33282     10.62451      5.87395        -0.554230      0.631236     -0.034478
H     13.33282     10.35389     15.10445        -0.527070      0.406576      0.161379
H      5.87395      7.64558     10.35389         0.147875      0.535953      0.033677
H     15.10445      7.64558     10.62451         0.431003      0.960320      0.265005
H      5.87395     13.33282     10.62451        -0.224332     -0.482554      0.362377
H     15.10445     13.33282     10.35389         0.028599     -0.303582     -0.383681
H      5.87395     10.35389      7.64558        -0.081512     -0.370887      1.438566
H     15.10445     10.62451      7.64558         0.214298      0.472131      1.300585
H      5.87395     10.62451     13.33282        -0.193785     -0.360968     -1.182572
H     15.10445     10.35389     13.33282         0.575985      0.933879     -1.522199
H     10.35389      7.64558      5.87395        -0.549733      0.506037     -0.179544
H     10.62451      7.64558     15.10445        -0.140927      0.499612      0.181880
H     10.62451     13.33282      5.87395         0.882538     -1.372368     -0.320147
H     10.35389     13.33282     15.10445         0.256791     -0.557327     -0.089199
H      7.64558      5.87395     10.35389         0.715759      0.172519     -0.155547
H      7.64558     15.10445     10.62451         1.981512      0.775675      0.214593
H     13.33282      5.87395     10.62451        -2.685040     -0.948825     -0.471763
H     13.33282     15.10445     10.35389        -0.877534     -0.050083     -0.249970
H     12.45634     12.45634     19.01126         0.271916      0.258030     -0.227086
H     19.01126     19.01126     19.01126        -0.266842     -0.254927     -0.238265
H     19.01126     12.45634     12.45634        -0.283007      0.281238      0.186755
H     12.45634     19.01126     12.45634         0.255894     -0.251060      0.236183
C     10.35284      5.61067      6.59456         0.083350     -0.499939     -1.231663
C     10.62556     15.36773      6.59456         0.171215      0.757927     -0.816860
C     10.62556      5.61067     14.38384         0.183900     -0.315192      1.805467
C     10.35284     15.36773     14.38384         0.102355      0.384947      1.805024
C      6.59456     10.35284      5.61067        -1.131248     -0.109970     -0.865362
C      6.59456     10.62556     15.36773        -0.696903     -0.101440      0.768826
C     14.38384     10.62556      5.61067         0.863240     -0.109626     -1.000580
C     14.38384     10.35284     15.36773         1.198673      0.166587      1.102733
C      5.61067      6.59456     10.35284        -0.672478     -0.866613     -0.178895
C     15.36773      6.59456     10.62556         1.975129     -0.259000     -0.183245
C      5.61067     14.38384     10.62556        -1.574736     -0.004992     -0.128402
C     15.36773     14.38384     10.35284         0.486672      0.073905      0.013473
C      5.61067     10.35284      6.59456        -0.278633      0.194266     -1.341278
C     15.36773     10.62556      6.59456         0.284925     -0.232905     -0.999412
C      5.61067     10.62556     14.38384        -0.261172      0.422253      1.453212
C     15.36773     10.35284     14.38384         0.049009     -0.443546      1.928693
C     10.35284      6.59456      5.61067        -0.180155     -0.884510     -0.685661
C     10.62556      6.59456     15.36773        -0.109192     -0.764933      1.056974
C     10.62556     14.38384      5.61067        -0.498756      2.013092     -0.778959
C     10.35284     14.38384     15.36773        -0.277438      1.420730      0.489021
C      6.59456      5.61067     10.35284        -0.969094     -0.410445      0.085342
C      6.59456     15.36773     10.62556        -1.298071      0.374697     -0.328603
C     14.38384      5.61067     10.62556         1.283399     -1.252391      0.183064
C     14.38384     15.36773     10.35284         0.441018      0.314154      0.072558
C     10.40319      3.19606      7.29314         0.001795      0.308713     -0.103151
C     10.35913      4.25547      6.23373         0.139169     -0.536625      0.018105
C      0.08601      7.29314      7.29314        -0.052960     -0.298373     -0.424542
C      0.13007      6.23373      6.23373        -0.122228      0.706745      0.028906
C      0.08601      3.19606      3.19606        -0.107025      1.632356      0.171625
C      0.13007      4.25547      4.25547        -0.084997     -0.400635     -1.233297
C     10.40319      7.29314      3.19606         0.016403     -0.431005      0.124282
C     10.35913      6.23373      4.25547         0.260494      0.083108     -0.508251
C      7.29314     10.40319      3.19606        -1.667728      0.007718      0.324426
C      6.23373     10.35913      4.25547         0.654812      0.076036     -0.608007
C      7.29314      0.08601      7.29314        -0.405307     -0.012234     -0.307441
C      6.23373      0.13007      6.23373         0.682072     -0.054950      0.263214
C      3.19606      0.08601      3.19606         0.655695     -0.016154      0.186202
C      4.25547      0.13007      4.25547        -0.373293     -0.075697     -0.530722
C      3.19606     10.40319      7.29314         0.367963      0.019293     -0.315481
C      4.25547     10.35913      6.23373        -0.722526      0.066957      0.365483
C      3.19606      7.29314     10.40319         0.294364     -0.211870     -0.006491
C      4.25547      6.23373     10.35913         0.045035      0.645401      0.091621
C      7.29314      7.29314      0.08601        -0.718000     -0.606577     -0.021001
C      6.23373      6.23373      0.13007         0.872484      1.129370     -0.071810
C      3.19606      3.19606      0.08601         0.815927      0.504330      0.008257
C      4.25547      4.25547      0.13007        -0.326400     -1.744327     -0.129671
C      7.29314      3.19606     10.40319        -0.329987      0.275590     -0.003516
C      6.23373      4.25547     10.35913         0.508121     -0.028441      0.229963
O     10.43466      3.58206      8.50569        -0.048190      0.183054      0.258644
O     10.54374     17.39634      8.50569         0.042277     -0.232286      0.484324
O     10.54374      3.58206     12.47271         0.083805     -0.062991     -0.036568
O     10.43466     17.39634     12.47271        -0.023294     -0.140864     -0.274781
O      8.50569     10.43466      3.58206         0.982470      0.185575      0.385847
O      8.50569     10.54374     17.39634         0.572860      0.084737     -0.228353
O     12.47271     10.54374      3.58206        -0.424171     -0.038155      0.187003
O     12.47271     10.43466     17.39634        -0.516439     -0.069521     -0.196562
O      3.58206      8.50569     10.43466         0.182556      0.432138     -0.029930
O     17.39634      8.50569     10.54374        -0.230166      0.714404      0.044376
O      3.58206     12.47271     10.54374         0.160687     -0.675522      0.025335
O     17.39634     12.47271     10.43466        -0.185504     -0.479662     -0.011805
O      3.58206     10.43466      8.50569         0.223302     -0.059791      0.401511
O     17.39634     10.54374      8.50569        -0.171217      0.036907      0.410875
O      3.58206     10.54374     12.47271         0.147124      0.021046     -0.305729
O     17.39634     10.43466     12.47271         0.071100     -0.049892     -0.082949
O     10.43466      8.50569      3.58206         0.000642      0.276913      0.181540
O     10.54374      8.50569     17.39634         0.070653      0.437087     -0.180002
O     10.54374     12.47271      3.58206        -0.221754     -0.967668      0.344292
O     10.43466     12.47271     17.39634        -0.084099     -0.449405     -0.244960
O      8.50569      3.58206     10.43466         0.494385      0.196427     -0.011862
O      8.50569     17.39634     10.54374         0.663114     -0.198341      0.022134
O     12.47271      3.58206     10.54374        -0.741949      0.278686      0.036487
O     12.47271     17.39634     10.43466        -0.437787     -0.202727     -0.044019
O     11.90042     11.90042     19.56718        -0.346185     -0.307406      0.259445
O     19.56718     19.56718     19.56718         0.325203      0.311897      0.282754
O     19.56718     11.90042     11.90042         0.276886     -0.276496     -0.140453
O     11.90042     19.56718     11.90042        -0.306105      0.286393     -0.233897
O      9.45224      1.03696      9.45224        -0.058854      0.072083     -0.047113
O      1.03696      9.45224      9.45224         0.035883     -0.073364     -0.071862
O      1.03696      1.03696      1.03696         0.058579      0.141669      0.101934
O      9.45224      9.45224      1.03696        -0.134943     -0.090972      0.102113
Zr     10.48920      2.52580     10.48920         0.153927     -0.167261     -0.162849
Zr     10.48920     18.45260     10.48920        -0.097858      0.180850     -0.045729
Zr     10.48920     10.48920      2.52580         0.332218     -0.308911     -0.197689
Zr     10.48920     10.48920     18.45260         0.006652     -0.086608      0.205651
Zr      2.52580     10.48920     10.48920        -0.067631      0.171696     -0.051612
Zr     18.45260     10.48920     10.48920         0.140722     -0.127359     -0.249130
Ir     12.04724     12.48379     10.46049        -0.005579      0.000400     -0.000470
Ir     11.19398      7.41723     10.29400         0.014412     -0.000533     -0.023174
Ir      8.83760      7.36867     11.56151         0.012657     -0.013483     -0.015236
Ir      7.48307     11.65523      7.66204        -0.010313     -0.004683     -0.001533
Ir     11.59206     12.08777      7.12339         0.000909     -0.008476     -0.003856
Ir     13.76197      8.99131      7.54897         0.008378     -0.001799     -0.006186
Ir     12.48410     13.95559      8.41931        -0.006902      0.001143     -0.004972
Ir      9.72429     11.26315      5.56208         0.011102     -0.008113     -0.008240
Ir      9.07995     13.46817      7.07712        -0.003245     -0.018164      0.002310
Ir      9.27749      9.66396      7.52301        -0.000189      0.006011     -0.015412
Ir     13.27886      7.03890     11.95634         0.004989      0.004975     -0.001115
Ir     13.59569      7.03817      9.11701         0.012766      0.004286     -0.008466
Ir     11.03782      7.59968     12.84090         0.011888     -0.005966     -0.020868
Ir     13.60793     11.56385      8.75455        -0.003619      0.000114      0.000903
Ir     11.50289      9.64623      6.23496         0.000368     -0.008112     -0.008826
Ir      7.15169      9.16940      8.93774         0.003506     -0.008978     -0.009938
Ir     14.06242     11.43302     11.65809        -0.004032      0.002857     -0.002582
Ir     11.65363      9.85597      8.88871         0.010108     -0.020471     -0.012193
Ir      9.43269      9.51397     10.24411         0.011611     -0.007667     -0.005713
Ir     13.86609      9.40589     10.18506         0.008475      0.006789     -0.008202
Ir     13.81480      9.16009     12.90244         0.010982      0.002423     -0.007848
Ir     11.68934      9.76327     11.56312         0.010129     -0.002247     -0.009656
Ir      9.90788     11.74470      8.97372         0.001972     -0.001316     -0.002931
Ir      9.07396      7.43366      8.81879         0.020310     -0.003555     -0.022414
Ir     11.56911      7.56508      7.76791         0.035582     -0.021010     -0.018077
Ir      9.25234      9.48640     13.01697         0.006495     -0.009378     -0.002635
Ir      7.51818     13.91042      8.99655        -0.006189     -0.008206     -0.000696
Ir     10.88471     14.11043     11.95195        -0.013818     -0.002686      0.000899
Ir     10.11719     14.16079      9.52420        -0.006808     -0.012750     -0.005871
Ir      9.79259     11.69345     11.72847         0.000681     -0.009405     -0.000209
Ir      7.58536     11.57836     10.21573         0.003149     -0.008811     -0.006028
Ir      8.35597     13.75221     11.58870        -0.008577     -0.010966     -0.003577
Ir      7.52502     11.57143     12.83110         0.000612     -0.016017     -0.001908
Ir      9.76956     11.62023     14.34419         0.003546     -0.016715      0.003209
Ir     13.48174     13.88223     12.19111        -0.009778      0.003963     -0.001905
Ir     11.99406     12.05070     13.08348        -0.005620     -0.002439     -0.000368
Ir     11.57394      9.80549     14.20426         0.006864     -0.010007     -0.011305
Ir      7.14839      9.37207     11.49949         0.003628     -0.015861     -0.004983
