152
# total energy = -1060.54293019 eVH     10.35389      5.87395      7.64558        -0.227395      0.142784      1.003531
H     10.62451     15.10445      7.64558         0.225305     -0.093796      0.794026
H     10.62451      5.87395     13.33282        -0.300135      0.082333     -0.701279
H     10.35389     15.10445     13.33282         0.133319     -0.289977     -0.705744
H      7.64558     10.35389      5.87395         0.815633     -0.177793      0.215182
H      7.64558     10.62451     15.10445         0.234099      0.038351     -0.059070
H     13.33282     10.62451      5.87395        -0.713820     -0.000401      0.164493
H     13.33282     10.35389     15.10445        -0.313232     -0.097341     -0.036507
H      5.87395      7.64558     10.35389         0.102465      0.409525      0.003264
H     15.10445      7.64558     10.62451        -0.094944      0.733849      0.288621
H      5.87395     13.33282     10.62451         0.003740     -0.821978      0.091067
H     15.10445     13.33282     10.35389        -0.220106     -0.399670      0.042700
H      5.87395     10.35389      7.64558         0.278904      0.061840      0.354991
H     15.10445     10.62451      7.64558        -0.152565     -0.125860      0.518127
H      5.87395     10.62451     13.33282        -0.008999      0.365532     -0.702496
H     15.10445     10.35389     13.33282         0.157925     -0.417356     -0.891019
H     10.35389      7.64558      5.87395        -0.011292      0.499707      0.343201
H     10.62451      7.64558     15.10445         0.226668      0.635091     -0.110672
H     10.62451     13.33282      5.87395         0.029073     -0.593966      0.189550
H     10.35389     13.33282     15.10445         0.077886     -0.375940     -0.118133
H      7.64558      5.87395     10.35389         0.432338      0.140685      0.052171
H      7.64558     15.10445     10.62451         0.385666     -0.129950      0.227622
H     13.33282      5.87395     10.62451        -0.306597      0.115671     -0.000523
H     13.33282     15.10445     10.35389        -0.620784     -0.209019      0.203555
H     12.45634     12.45634     19.01126         0.257184      0.266780     -0.225763
H     19.01126     19.01126     19.01126        -0.249389     -0.269152     -0.235555
H     19.01126     12.45634     12.45634        -0.239403      0.266982      0.244322
H     12.45634     19.01126     12.45634         0.296851     -0.221212      0.236769
C     10.35284      5.61067      6.59456         0.399021     -0.316838     -1.172478
C     10.62556     15.36773      6.59456        -0.280885      0.670699     -0.619441
C     10.62556      5.61067     14.38384         0.336288     -0.277730      0.735938
C     10.35284     15.36773     14.38384        -0.188684      0.334113      0.861088
C      6.59456     10.35284      5.61067        -1.075238     -0.015982     -0.193647
C      6.59456     10.62556     15.36773        -0.648396      0.062214      0.356191
C     14.38384     10.62556      5.61067         1.284726     -0.073381     -0.601712
C     14.38384     10.35284     15.36773         0.312338     -0.117849      0.408748
C      5.61067      6.59456     10.35284        -0.291733     -0.600888     -0.006557
C     15.36773      6.59456     10.62556         0.335833     -0.957984     -0.226913
C      5.61067     14.38384     10.62556        -0.213838      0.947304     -0.288570
C     15.36773     14.38384     10.35284         0.432475      0.832634     -0.092786
C      5.61067     10.35284      6.59456        -0.268235     -0.115468     -0.519675
C     15.36773     10.62556      6.59456         0.240982      0.117781     -0.456300
C      5.61067     10.62556     14.38384        -0.308563     -0.148800      1.206183
C     15.36773     10.35284     14.38384         0.175482      0.119966      1.203675
C     10.35284      6.59456      5.61067        -0.029340     -0.618408     -0.411262
C     10.62556      6.59456     15.36773        -0.020119     -0.762447      0.369871
C     10.62556     14.38384      5.61067        -0.451805      0.400171     -0.769211
C     10.35284     14.38384     15.36773        -0.175521      0.670268      0.454253
C      6.59456      5.61067     10.35284        -0.554585     -0.324632      0.052170
C      6.59456     15.36773     10.62556        -0.256174      0.500793      0.080946
C     14.38384      5.61067     10.62556         0.347999     -0.368712      0.081868
C     14.38384     15.36773     10.35284         1.017846      0.337991     -0.092606
C     10.40319      3.19606      7.29314        -0.007102      0.838488     -0.361628
C     10.35913      4.25547      6.23373         0.043341     -0.392932      0.297153
C      0.08601      7.29314      7.29314        -0.009469     -0.549929     -0.503283
C      0.13007      6.23373      6.23373        -0.079364      0.790165      0.060034
C      0.08601      3.19606      3.19606        -0.014274      0.541433      0.275985
C      0.13007      4.25547      4.25547         0.072331     -0.221888     -0.606113
C     10.40319      7.29314      3.19606        -0.040557     -1.114402      0.836620
C     10.35913      6.23373      4.25547        -0.026515      0.363990     -0.221499
C      7.29314     10.40319      3.19606        -0.958802     -0.052917      0.309869
C      6.23373     10.35913      4.25547         0.362881      0.104242     -0.518529
C      7.29314      0.08601      7.29314        -0.802094      0.016280     -0.384588
C      6.23373      0.13007      6.23373         0.164794      0.069706      0.117721
C      3.19606      0.08601      3.19606         0.543591      0.001996      0.197025
C      4.25547      0.13007      4.25547        -0.203125     -0.086407     -0.231334
C      3.19606     10.40319      7.29314         0.489957     -0.036519     -0.992027
C      4.25547     10.35913      6.23373        -0.154995     -0.010342      0.162511
C      3.19606      7.29314     10.40319         0.703168     -0.432325      0.010430
C      4.25547      6.23373     10.35913        -0.111029      0.165795      0.000395
C      7.29314      7.29314      0.08601        -0.383794     -0.303786     -0.024382
C      6.23373      6.23373      0.13007         0.256157      0.126480     -0.158700
C      3.19606      3.19606      0.08601         0.324333      0.562995     -0.020475
C      4.25547      4.25547      0.13007        -0.436002     -0.291776     -0.000498
C      7.29314      3.19606     10.40319        -0.271546      0.629530      0.005579
C      6.23373      4.25547     10.35913         0.025157     -0.181416      0.016637
O     10.43466      3.58206      8.50569        -0.035264      0.055194      0.257966
O     10.54374     17.39634      8.50569         0.064644     -0.059632      0.479136
O     10.54374      3.58206     12.47271         0.036104      0.139425     -0.460585
O     10.43466     17.39634     12.47271         0.070589     -0.029216     -0.496572
O      8.50569     10.43466      3.58206         0.657829     -0.082294      0.062781
O      8.50569     10.54374     17.39634         0.791126      0.079810     -0.122142
O     12.47271     10.54374      3.58206        -0.532721      0.107396      0.179647
O     12.47271     10.43466     17.39634        -0.346802     -0.004287      0.044308
O      3.58206      8.50569     10.43466         0.011543      0.441754     -0.079227
O     17.39634      8.50569     10.54374        -0.106860      0.442051      0.039634
O      3.58206     12.47271     10.54374         0.135816     -0.614694     -0.006448
O     17.39634     12.47271     10.43466        -0.243644     -0.739252     -0.005643
O      3.58206     10.43466      8.50569         0.171577     -0.041060      0.813831
O     17.39634     10.54374      8.50569         0.006248      0.034325      0.321211
O      3.58206     10.54374     12.47271         0.016211      0.007094     -0.321106
O     17.39634     10.43466     12.47271        -0.035072      0.003900     -0.347013
O     10.43466      8.50569      3.58206        -0.089039      0.560374     -0.096208
O     10.54374      8.50569     17.39634         0.047385      0.626654     -0.089713
O     10.54374     12.47271      3.58206         0.091398     -0.516256      0.104800
O     10.43466     12.47271     17.39634        -0.053677     -0.801990     -0.289925
O      8.50569      3.58206     10.43466         0.366263      0.024038     -0.064100
O      8.50569     17.39634     10.54374         0.558117     -0.135866      0.053816
O     12.47271      3.58206     10.54374        -0.492189      0.124563      0.025410
O     12.47271     17.39634     10.43466        -0.623431     -0.094096      0.050984
O     11.90042     11.90042     19.56718        -0.268307     -0.279082      0.222694
O     19.56718     19.56718     19.56718         0.293613      0.311013      0.283563
O     19.56718     11.90042     11.90042         0.265657     -0.310106     -0.263265
O     11.90042     19.56718     11.90042        -0.313694      0.201075     -0.213449
O      9.45224      1.03696      9.45224        -0.122583      0.140524     -0.048712
O      1.03696      9.45224      9.45224         0.147784     -0.145218     -0.060665
O      1.03696      1.03696      1.03696         0.091621      0.103667      0.059295
O      9.45224      9.45224      1.03696        -0.108254     -0.144518      0.117624
Zr     10.48920      2.52580     10.48920         0.038620     -0.181672      0.181547
Zr     10.48920     18.45260     10.48920        -0.184548      0.237089     -0.380344
Zr     10.48920     10.48920      2.52580         0.147998      0.420058     -0.217048
Zr     10.48920     10.48920     18.45260        -0.002310     -0.234000      0.322549
Zr      2.52580     10.48920     10.48920        -0.339538      0.089587      0.284369
Zr     18.45260     10.48920     10.48920         0.210758     -0.148217     -0.018575
Pd      9.29350     14.39385      9.16691        -0.047504      0.199025     -0.099398
Pd      8.52375     13.66573     13.16633        -0.068683     -0.067618      0.152769
Pd     11.99116     14.39607      8.85217         0.044735     -0.000710      0.080218
Pd     12.48213     12.79599     10.85487        -0.017458      0.009626      0.035192
Pd     12.07473      7.12052     12.50384        -0.005171      0.133132     -0.083180
Pd     11.01134     15.12880     11.32257         0.032764      0.006864     -0.040814
Pd      9.83934     12.79042     11.04966        -0.029383     -0.070703      0.147715
Pd     13.58087     12.33560      8.10898        -0.040999     -0.041875      0.043814
Pd     11.60177     11.70568      6.23918        -0.007630     -0.142502      0.139163
Pd      7.80589      8.17945      7.47902         0.031197      0.042151     -0.029050
Pd      8.73050     11.82257      6.85396         0.071853     -0.087034     -0.104595
Pd     10.00016      9.60768      8.20488         0.001699      0.051546     -0.014370
Pd      8.45855     14.50083      6.62239         0.113602      0.061691      0.052465
Pd     12.29789      9.23094      7.05424        -0.054418      0.030535     -0.180586
Pd      9.92466      9.68784      5.56570         0.027762      0.073377      0.028609
Pd      6.90900      9.37397     12.22939         0.042623      0.046433      0.120556
Pd     12.28663      6.68843      7.89567        -0.050410     -0.106344     -0.026095
Pd      5.82778     10.47500      9.85826        -0.043804      0.042632     -0.011977
Pd      7.54252      6.96374     13.21286         0.068617      0.051071     -0.025010
Ir     11.48141      9.66008     13.10566         0.052699     -0.141959     -0.167826
Ir     13.34993      9.20319     11.46889        -0.118768     -0.184586      0.324490
Ir      9.18146      8.79011     13.98964        -0.003402     -0.171402      0.015206
Ir     10.34869     10.72208     15.15729         0.021503     -0.004790      0.197523
Ir      7.22359     11.97156     11.51126         0.096671     -0.075626      0.062885
Ir     14.57562     11.10234     10.42373         0.133330      0.097021      0.016464
Ir     12.30945     10.49283      9.47564        -0.109633      0.215340     -0.253293
Ir      8.92290     11.04966     12.98250        -0.348208     -0.005722     -0.180443
Ir     10.07268     10.02883     10.93953         0.031888      0.073909     -0.049633
Ir     13.46277     11.38547     12.73643        -0.135569      0.082124     -0.090674
Ir     11.18663     12.18240     13.22568         0.223189      0.161090     -0.154922
Ir      8.31218     11.31231      9.35310        -0.019391     -0.074902      0.092382
Ir     11.50596      8.02845      9.99489         0.133007      0.026450     -0.038006
Ir      7.11149     13.20235      8.50879        -0.092432     -0.005093     -0.080042
Ir      9.43540      7.00122      9.22280        -0.172613     -0.012270     -0.128173
Ir      7.96433      8.87872      9.97254         0.089397      0.007987     -0.005661
Ir     10.69441     12.14780      8.60556         0.099681     -0.155051      0.124647
Ir      9.50805      7.71918     11.69758        -0.115115     -0.022693      0.141456
Ir     13.85208      8.48165      9.08225         0.036094      0.003748     -0.149339
