152
# total energy = -1022.54445629 eVH     10.35389      5.87395      7.64558         0.435484     -0.025451      1.022208
H     10.62451     15.10445      7.64558         0.024725     -0.051245      0.646623
H     10.62451      5.87395     13.33282         0.133236      0.110368     -0.624893
H     10.35389     15.10445     13.33282        -0.264801     -0.068212     -0.553472
H      7.64558     10.35389      5.87395         0.371761     -0.059009      0.193285
H      7.64558     10.62451     15.10445         0.622530     -0.144881     -0.118218
H     13.33282     10.62451      5.87395        -1.011869     -0.473386      0.021390
H     13.33282     10.35389     15.10445        -0.480320     -0.069782     -0.049426
H      5.87395      7.64558     10.35389         0.053114      1.237971     -0.085710
H     15.10445      7.64558     10.62451        -0.169005      0.396034     -0.076172
H      5.87395     13.33282     10.62451         0.144699     -0.387420     -0.066585
H     15.10445     13.33282     10.35389        -0.081399     -0.995377     -0.310466
H      5.87395     10.35389      7.64558         0.119651     -0.010104      0.416336
H     15.10445     10.62451      7.64558         0.115395     -0.122216      0.775276
H      5.87395     10.62451     13.33282         0.267221     -0.051277     -0.418541
H     15.10445     10.35389     13.33282        -0.171006      0.049296     -0.632890
H     10.35389      7.64558      5.87395         0.182528      0.903001      0.060995
H     10.62451      7.64558     15.10445         0.007230      0.694954     -0.113903
H     10.62451     13.33282      5.87395         0.295495     -0.530584      0.190548
H     10.35389     13.33282     15.10445        -0.192949     -0.919325     -0.118367
H      7.64558      5.87395     10.35389         0.493744      0.050267     -0.160353
H      7.64558     15.10445     10.62451         0.917377     -0.191866      0.255844
H     13.33282      5.87395     10.62451        -0.426006      0.192511     -0.068865
H     13.33282     15.10445     10.35389        -0.997773     -0.054739      0.262312
H     12.45634     12.45634     19.01126         0.271858      0.258370     -0.219618
H     19.01126     19.01126     19.01126        -0.249516     -0.235632     -0.261365
H     19.01126     12.45634     12.45634        -0.244167      0.272699      0.235341
H     12.45634     19.01126     12.45634         0.206583     -0.284980      0.257164
C     10.35284      5.61067      6.59456        -0.065447     -0.474309     -0.698908
C     10.62556     15.36773      6.59456         0.021213      0.333162     -0.926255
C     10.62556      5.61067     14.38384        -0.008652     -0.281883      0.741529
C     10.35284     15.36773     14.38384         0.220936      0.712793      0.072389
C      6.59456     10.35284      5.61067        -0.554922     -0.037790     -0.243174
C      6.59456     10.62556     15.36773        -0.850342      0.134014      0.401495
C     14.38384     10.62556      5.61067         1.015783      0.290129     -0.313931
C     14.38384     10.35284     15.36773         0.755664     -0.117390      0.424402
C      5.61067      6.59456     10.35284        -0.389023     -0.919039      0.208360
C     15.36773      6.59456     10.62556         0.203254     -0.481845      0.040320
C      5.61067     14.38384     10.62556        -0.250953      0.381727     -0.010082
C     15.36773     14.38384     10.35284         0.323839      0.319656      0.257491
C      5.61067     10.35284      6.59456        -0.330167      0.010396     -0.827199
C     15.36773     10.62556      6.59456         0.533966     -0.162325     -1.201007
C      5.61067     10.62556     14.38384        -0.505954      0.008263      1.067043
C     15.36773     10.35284     14.38384         0.544491     -0.194804      1.320587
C     10.35284      6.59456      5.61067        -0.011335     -1.088539     -0.709665
C     10.62556      6.59456     15.36773         0.054400     -0.871694      0.372765
C     10.62556     14.38384      5.61067        -0.033531      1.376636     -0.721266
C     10.35284     14.38384     15.36773         0.058082      0.638231      0.593694
C      6.59456      5.61067     10.35284        -0.117781     -0.902290      0.133841
C      6.59456     15.36773     10.62556        -1.730010      0.488457      0.051571
C     14.38384      5.61067     10.62556         0.557338     -0.225683      0.003630
C     14.38384     15.36773     10.35284         0.442759      0.503722     -0.216340
C     10.40319      3.19606      7.29314         0.017836      0.969080     -0.230665
C     10.35913      4.25547      6.23373        -0.037831     -0.294052      0.732601
C      0.08601      7.29314      7.29314        -0.010969     -0.223255     -0.462675
C      0.13007      6.23373      6.23373        -0.013594      0.143683      0.175379
C      0.08601      3.19606      3.19606        -0.023056      0.707468      0.152541
C      0.13007      4.25547      4.25547        -0.103520     -0.192170     -0.160362
C     10.40319      7.29314      3.19606        -0.002994     -0.653217      0.487623
C     10.35913      6.23373      4.25547         0.002310      0.561654     -0.314863
C      7.29314     10.40319      3.19606        -0.401162      0.018003      0.890859
C      6.23373     10.35913      4.25547         0.236208     -0.005799     -0.176628
C      7.29314      0.08601      7.29314        -0.305576     -0.053297     -0.241413
C      6.23373      0.13007      6.23373         0.286793     -0.087123      0.250014
C      3.19606      0.08601      3.19606         0.338408     -0.057972      1.344378
C      4.25547      0.13007      4.25547        -0.184367     -0.014250     -0.438164
C      3.19606     10.40319      7.29314         0.744776      0.017432     -0.259353
C      4.25547     10.35913      6.23373        -0.120290      0.038834      0.122417
C      3.19606      7.29314     10.40319         0.533332     -1.240786      0.040590
C      4.25547      6.23373     10.35913        -0.753350      0.722357      0.028270
C      7.29314      7.29314      0.08601        -0.647434     -0.187871     -0.023822
C      6.23373      6.23373      0.13007         0.172860      0.259689     -0.013485
C      3.19606      3.19606      0.08601         0.255532      0.263240     -0.019186
C      4.25547      4.25547      0.13007        -0.054636     -0.034262      0.014673
C      7.29314      3.19606     10.40319        -0.346991      0.707498      0.029449
C      6.23373      4.25547     10.35913         0.727189     -0.211851      0.029721
O     10.43466      3.58206      8.50569        -0.055021      0.022804      0.284998
O     10.54374     17.39634      8.50569        -0.020385     -0.194409      0.615474
O     10.54374      3.58206     12.47271         0.066492      0.046503     -0.292271
O     10.43466     17.39634     12.47271        -0.024098     -0.126921     -0.557106
O      8.50569     10.43466      3.58206         0.394337     -0.009308     -0.010550
O      8.50569     10.54374     17.39634         0.465071      0.058629     -0.144226
O     12.47271     10.54374      3.58206        -0.219741      0.066803     -0.114421
O     12.47271     10.43466     17.39634        -0.849326      0.025993     -0.209212
O      3.58206      8.50569     10.43466         0.033585      0.887817      0.042173
O     17.39634      8.50569     10.54374        -0.030967      0.352387      0.080638
O      3.58206     12.47271     10.54374         0.064077     -0.431204      0.059414
O     17.39634     12.47271     10.43466        -0.157751     -0.719101      0.012138
O      3.58206     10.43466      8.50569        -0.055199     -0.061500      0.227433
O     17.39634     10.54374      8.50569        -0.134532      0.042680      0.441780
O      3.58206     10.54374     12.47271        -0.056974     -0.060452     -0.867365
O     17.39634     10.43466     12.47271        -0.193446      0.042854     -0.764097
O     10.43466      8.50569      3.58206         0.027206      0.674160      0.199837
O     10.54374      8.50569     17.39634         0.054712      0.398276     -0.070038
O     10.54374     12.47271      3.58206        -0.044917     -0.741556      0.249834
O     10.43466     12.47271     17.39634         0.061244     -0.849319     -0.279904
O      8.50569      3.58206     10.43466         0.495225      0.092398     -0.041226
O      8.50569     17.39634     10.54374         0.657033     -0.235770     -0.057270
O     12.47271      3.58206     10.54374        -0.509078      0.157817      0.041583
O     12.47271     17.39634     10.43466        -0.477003     -0.032067     -0.043829
O     11.90042     11.90042     19.56718        -0.308054     -0.310792      0.259645
O     19.56718     19.56718     19.56718         0.292040      0.274548      0.321490
O     19.56718     11.90042     11.90042         0.281645     -0.329486     -0.233026
O     11.90042     19.56718     11.90042        -0.220680      0.294271     -0.242122
O      9.45224      1.03696      9.45224        -0.070930      0.060744     -0.065161
O      1.03696      9.45224      9.45224         0.069920     -0.142573     -0.049855
O      1.03696      1.03696      1.03696         0.046026      0.030160      0.189991
O      9.45224      9.45224      1.03696        -0.035159     -0.086022      0.134316
Zr     10.48920      2.52580     10.48920        -0.000587     -0.073165     -0.027807
Zr     10.48920     18.45260     10.48920         0.032517      0.289973     -0.065887
Zr     10.48920     10.48920      2.52580        -0.071171     -0.031025     -0.367839
Zr     10.48920     10.48920     18.45260        -0.151751     -0.198767      0.300532
Zr      2.52580     10.48920     10.48920        -0.323052      0.342791     -0.482990
Zr     18.45260     10.48920     10.48920         0.214117      0.039554     -0.298734
Pd      9.04426     10.27869     13.45442         0.008111      0.002310     -0.042473
Pd     10.63861      9.72286     11.21172        -0.002858     -0.002160     -0.065217
Pd     13.76832      8.53785     12.79389        -0.005262      0.004244     -0.029854
Pd     11.01417     11.12930     15.09859        -0.006176     -0.014357     -0.018361
Pd     12.82115     11.16253     13.05271         0.012784      0.017809      0.007117
Pd     14.99436     10.82733     11.37489        -0.022371      0.042765     -0.008503
Pd      6.68059      7.40628     12.31369         0.001351      0.003924      0.004594
Pd      9.27921      7.32856     10.23983        -0.042230     -0.042932     -0.019548
Pd      9.24913      7.64457     12.90262         0.009324     -0.000970     -0.024489
Pd     11.72020      7.26445     11.61080        -0.008270     -0.000097     -0.040932
Pd     11.46591      7.85874      8.94469        -0.086128      0.083049     -0.018990
Pd      7.21848     11.83653     12.05463         0.010954     -0.007548     -0.031979
Pd      8.91679     14.65165      9.33510        -0.021804      0.002979      0.000044
Pd      8.43983     12.72627     14.35114        -0.008963     -0.020553     -0.008481
Pd     13.23971     13.94742      8.68898         0.060811      0.029486     -0.034525
Pd     10.78880     13.10781      8.44354         0.037256      0.068744      0.004172
Pd     14.04318     11.41133      8.99627         0.011223      0.019858     -0.035567
Pd      8.64183     14.09356     12.07646        -0.009906     -0.000838      0.005578
Pd     12.23346     13.74930     13.98111         0.004550      0.010915      0.016633
Pd     11.15621     14.37266     11.04368        -0.007815      0.012193      0.014506
Pd     14.05965     13.44718     12.14013         0.010948      0.043453      0.022018
Pd     12.25906     12.07578     10.68691         0.042736      0.031254      0.005654
Pd     12.48924     11.99446      6.83691         0.029027      0.090646     -0.048401
Pd     13.57962      8.97022      7.87521        -0.001707     -0.027871      0.023349
Pd      6.93003      8.41099      8.95347        -0.048858      0.026649     -0.032116
Pd      5.51547      9.86849     11.34912         0.008445      0.006586     -0.016843
Pd      8.93483      9.92242      8.09900         0.070895     -0.052007      0.091031
Pd      9.01943      7.38682      7.57381        -0.084570     -0.057366     -0.025078
Pd      9.42239     11.99876     10.44657         0.043165      0.020164     -0.000118
Pd     11.36294     10.50704      8.77934         0.068354      0.096829     -0.047229
Pd     11.08954      9.36857      6.46629         0.021872     -0.012196     -0.001087
Pd      9.69444     11.72614      6.25855         0.024078     -0.038364      0.035382
Ir     11.37324      9.07411     13.55467        -0.002936      0.006986     -0.047485
Ir     13.07184      9.37214     10.44894         0.007261      0.021386     -0.011036
Ir     10.52152     12.34499     12.70545         0.013190      0.010687     -0.001581
Ir      7.03195     10.96948      9.59449         0.001426     -0.009055     -0.001737
Ir      8.20703     12.46452      8.20842         0.052331     -0.006462     -0.008159
Ir      8.09566      9.35879     11.18849        -0.002563     -0.010478     -0.024299
