152
# total energy = -1005.98196688 eVH     10.35389      5.87395      7.64558         0.258310      0.037446      0.639341
H     10.62451     15.10445      7.64558        -0.109212     -0.142627      0.527248
H     10.62451      5.87395     13.33282         0.486886      0.120302     -0.584378
H     10.35389     15.10445     13.33282         0.071389     -0.184857     -0.545915
H      7.64558     10.35389      5.87395         0.370698      0.047966      0.172291
H      7.64558     10.62451     15.10445         0.690512      0.471119     -0.042304
H     13.33282     10.62451      5.87395        -0.532255      0.418651      0.075691
H     13.33282     10.35389     15.10445        -0.799518     -0.095569      0.004554
H      5.87395      7.64558     10.35389         0.249617      0.775819     -0.303293
H     15.10445      7.64558     10.62451        -0.094548      0.485122      0.285488
H      5.87395     13.33282     10.62451         0.157475     -0.698540     -0.161145
H     15.10445     13.33282     10.35389        -0.004235     -1.044413     -0.330627
H      5.87395     10.35389      7.64558         0.253702      0.164403      0.621142
H     15.10445     10.62451      7.64558        -0.111041      0.407548      0.766825
H      5.87395     10.62451     13.33282         0.140798      0.334936     -0.696723
H     15.10445     10.35389     13.33282        -0.041148     -0.076259     -0.701442
H     10.35389      7.64558      5.87395         0.370686      1.044694     -0.009430
H     10.62451      7.64558     15.10445         0.536815      0.536017     -0.118389
H     10.62451     13.33282      5.87395        -0.396444     -0.836730      0.187994
H     10.35389     13.33282     15.10445        -0.043113     -0.433301     -0.217171
H      7.64558      5.87395     10.35389         0.854546      0.088682     -0.290672
H      7.64558     15.10445     10.62451         0.829234     -0.200670      0.001512
H     13.33282      5.87395     10.62451        -0.796126      0.189882      0.591439
H     13.33282     15.10445     10.35389        -0.444725     -0.107373     -0.136470
H     12.45634     12.45634     19.01126         0.235599      0.270871     -0.239503
H     19.01126     19.01126     19.01126        -0.262109     -0.240813     -0.261448
H     19.01126     12.45634     12.45634        -0.266571      0.268392      0.219655
H     12.45634     19.01126     12.45634         0.232708     -0.256748      0.276796
C     10.35284      5.61067      6.59456        -0.431354     -0.691001      0.154682
C     10.62556     15.36773      6.59456         0.065656      0.363380     -0.307834
C     10.62556      5.61067     14.38384        -0.329837     -0.374266     -0.296475
C     10.35284     15.36773     14.38384        -0.006444      0.342016      0.534973
C      6.59456     10.35284      5.61067        -0.280802     -0.006004     -0.334937
C      6.59456     10.62556     15.36773        -0.253057     -0.216693      0.799269
C     14.38384     10.62556      5.61067        -0.245105     -0.396546     -0.524304
C     14.38384     10.35284     15.36773         0.972313     -0.063227      0.255642
C      5.61067      6.59456     10.35284        -0.535953     -0.005644      0.061045
C     15.36773      6.59456     10.62556         0.533701      0.016617     -0.249856
C      5.61067     14.38384     10.62556        -0.324863      0.977813      0.080039
C     15.36773     14.38384     10.35284         0.304651      1.046703      0.049482
C      5.61067     10.35284      6.59456        -0.190026     -0.220417     -0.609198
C     15.36773     10.62556      6.59456         0.446294     -0.278025      0.114519
C      5.61067     10.62556     14.38384        -0.702243     -0.344086     -0.079207
C     15.36773     10.35284     14.38384         0.383241     -0.064205      1.025610
C     10.35284      6.59456      5.61067        -0.217743     -0.270734     -0.656739
C     10.62556      6.59456     15.36773        -0.266664      0.131674      0.451606
C     10.62556     14.38384      5.61067         0.195372      1.062206     -0.347740
C     10.35284     14.38384     15.36773         0.017359      0.544639      0.443624
C      6.59456      5.61067     10.35284        -0.149677     -0.728169      0.250366
C      6.59456     15.36773     10.62556        -1.006243      0.287571      0.079828
C     14.38384      5.61067     10.62556         0.497506     -0.554783     -0.366648
C     14.38384     15.36773     10.35284         0.218270      0.461616     -0.100338
C     10.40319      3.19606      7.29314         0.013117      0.679969     -0.478527
C     10.35913      4.25547      6.23373         0.087364     -0.722922     -0.022289
C      0.08601      7.29314      7.29314        -0.044082     -0.407518     -0.313018
C      0.13007      6.23373      6.23373        -0.022895      0.086361      0.573384
C      0.08601      3.19606      3.19606        -0.012901      1.267767      0.283759
C      0.13007      4.25547      4.25547         0.050343     -0.778455     -0.155377
C     10.40319      7.29314      3.19606         0.011510     -0.326588      0.331559
C     10.35913      6.23373      4.25547         0.026020      0.006025     -0.844665
C      7.29314     10.40319      3.19606        -0.322986      0.022338      0.565148
C      6.23373     10.35913      4.25547         0.201399      0.064607     -0.090575
C      7.29314      0.08601      7.29314        -0.517591     -0.065015     -0.376784
C      6.23373      0.13007      6.23373         0.679004     -0.053587      0.479452
C      3.19606      0.08601      3.19606         0.718316     -0.034714      0.568976
C      4.25547      0.13007      4.25547        -0.581031     -0.086403     -0.545402
C      3.19606     10.40319      7.29314         0.480672     -0.013933     -0.769055
C      4.25547     10.35913      6.23373        -0.405699      0.052286      0.198660
C      3.19606      7.29314     10.40319         0.294695     -1.275415      0.044924
C      4.25547      6.23373     10.35913        -0.768170      0.108881      0.152734
C      7.29314      7.29314      0.08601        -0.407609     -0.374292     -0.027139
C      6.23373      6.23373      0.13007         0.467636      0.214288     -0.017695
C      3.19606      3.19606      0.08601         0.490368      0.375534     -0.040693
C      4.25547      4.25547      0.13007        -0.157306     -0.647955     -0.035063
C      7.29314      3.19606     10.40319        -0.325084      0.436534      0.076782
C      6.23373      4.25547     10.35913         0.282798     -0.684038      0.144913
O     10.43466      3.58206      8.50569        -0.018025      0.104912      0.501638
O     10.54374     17.39634      8.50569         0.036693     -0.175287      0.485998
O     10.54374      3.58206     12.47271         0.054567     -0.088081     -0.184952
O     10.43466     17.39634     12.47271        -0.038593     -0.183293     -0.547090
O      8.50569     10.43466      3.58206         0.308082     -0.003760      0.026417
O      8.50569     10.54374     17.39634         0.628423      0.034444     -0.143963
O     12.47271     10.54374      3.58206        -0.704984      0.084732      0.094705
O     12.47271     10.43466     17.39634        -0.437491      0.024938     -0.109122
O      3.58206      8.50569     10.43466         0.178721      1.040525     -0.040868
O     17.39634      8.50569     10.54374        -0.160104      0.540100      0.076250
O      3.58206     12.47271     10.54374         0.085469     -0.368981      0.049098
O     17.39634     12.47271     10.43466        -0.156582     -0.546702     -0.022698
O      3.58206     10.43466      8.50569         0.077920     -0.066742      0.591219
O     17.39634     10.54374      8.50569        -0.110490      0.066184      0.525158
O      3.58206     10.54374     12.47271         0.043352      0.047970     -0.521829
O     17.39634     10.43466     12.47271        -0.222673     -0.038353     -0.604660
O     10.43466      8.50569      3.58206        -0.039805      0.455903      0.136250
O     10.54374      8.50569     17.39634         0.050611      0.530887     -0.159372
O     10.54374     12.47271      3.58206         0.003217     -1.018594      0.204068
O     10.43466     12.47271     17.39634         0.041984     -0.726134     -0.175218
O      8.50569      3.58206     10.43466         0.508898      0.146059     -0.055422
O      8.50569     17.39634     10.54374         0.487601     -0.196487      0.014826
O     12.47271      3.58206     10.54374        -0.632698      0.230236      0.010593
O     12.47271     17.39634     10.43466        -0.221446      0.067628     -0.055276
O     11.90042     11.90042     19.56718        -0.239248     -0.290084      0.247287
O     19.56718     19.56718     19.56718         0.311137      0.295295      0.301307
O     19.56718     11.90042     11.90042         0.291553     -0.264632     -0.233221
O     11.90042     19.56718     11.90042        -0.241570      0.290714     -0.330538
O      9.45224      1.03696      9.45224        -0.018971      0.087980     -0.073065
O      1.03696      9.45224      9.45224         0.091761     -0.092293     -0.137094
O      1.03696      1.03696      1.03696         0.090417      0.189113      0.050261
O      9.45224      9.45224      1.03696        -0.108581     -0.103574      0.034129
Zr     10.48920      2.52580     10.48920        -0.127601     -0.287384     -0.037289
Zr     10.48920     18.45260     10.48920        -0.075324      0.215044      0.081940
Zr     10.48920     10.48920      2.52580         0.031622     -0.402781     -0.256001
Zr     10.48920     10.48920     18.45260        -0.278680     -0.091747      0.322338
Zr      2.52580     10.48920     10.48920        -0.379583      0.240385      0.291135
Zr     18.45260     10.48920     10.48920         0.236541     -0.004340     -0.225111
Pd     13.60864      8.97459      9.22459         0.001955      0.006028     -0.008247
Pd      5.62899      9.87474     10.14125        -0.000582     -0.004824     -0.001941
Pd      6.77783     11.85682     11.71017        -0.003436     -0.003083      0.000191
Pd     12.05933     13.00724      7.37249         0.003245     -0.002846     -0.006982
Pd     11.88022      7.73834      7.46486        -0.001441      0.001575     -0.002423
Pd      8.31343      6.84983      6.57618         0.001524     -0.002751     -0.015361
Pd     10.62864     11.17243      5.64744        -0.015773     -0.001706      0.001846
Pd     14.39726      8.55062      6.74387         0.001174     -0.000859     -0.004234
Pd      9.67456     11.72701      8.12619        -0.004304      0.002755      0.005845
Pd      6.75707      6.79617     12.32459        -0.009910     -0.002189      0.004435
Pd      6.54687      8.09467      8.03062         0.016644      0.049014     -0.041662
Pd      6.53259      8.49878     14.36090        -0.003662     -0.002973      0.009928
Pd     11.49694      6.52498      9.94634        -0.004083     -0.001273     -0.000233
Pd      9.50456      9.19994      7.15040        -0.011277      0.001659      0.008113
Pd      8.97978     13.98437      9.32951        -0.000213      0.004448      0.007690
Pd      9.46624      7.37210     11.72351        -0.010096     -0.001728     -0.008137
Pd     10.61958      8.98170      9.68609         0.002410     -0.006267     -0.001691
Pd      9.33949     11.53922     10.71204         0.000112      0.009443      0.007496
Pd      8.89614      7.05565      9.14388        -0.011457      0.006545     -0.012010
Pd      8.55320      6.57882     14.24605         0.000456     -0.000248     -0.004946
Pd      7.64750      9.33250     11.99301        -0.008725     -0.003837      0.014158
Pd     11.96764     10.37934      7.72670        -0.010007     -0.000483     -0.002476
Pd      7.13094     12.01247      9.06486        -0.000734      0.002126      0.000866
Pd      8.12976      9.60930      9.39948         0.006830      0.008363      0.025127
Pd     14.02046      6.49242      8.51917        -0.003213      0.003822      0.002036
Pd     12.62295      8.39795     11.58235         0.001690      0.004137     -0.004716
Pd      8.77009     11.57637     13.40594        -0.003327     -0.000752      0.002472
Pd     13.88856     11.93631      8.96441        -0.002961     -0.007640      0.001791
Pd     12.95469     10.70160     13.06501        -0.007531      0.001910      0.004345
Pd     14.78902     10.44838     11.10415        -0.006376     -0.004382      0.007069
Pd     12.07510     10.90034     10.52966        -0.007959     -0.002137      0.004908
Pd     11.44044     13.35222      9.93747         0.001930     -0.003133     -0.005778
Pd     13.60161     12.92534     11.62816        -0.001983     -0.002758     -0.000124
Pd     11.12273     12.61248     12.53972        -0.004324      0.003933      0.001365
Pd     10.95520     11.05940     14.81498        -0.004938      0.001652      0.000969
Pd     10.51676      9.73785     12.38203        -0.006663     -0.004145      0.001931
Pd      9.08596      9.14249     14.41928        -0.002026     -0.001246      0.004999
Pd      8.82485     13.85313     12.02453        -0.007257      0.001917      0.009074
