152
# total energy = -1024.44309602 eVH     10.35389      5.87395      7.64558         0.472923      0.027774      0.735112
H     10.62451     15.10445      7.64558         0.065341     -0.201666      0.629228
H     10.62451      5.87395     13.33282         0.097968      0.152023     -0.578342
H     10.35389     15.10445     13.33282        -0.502602     -0.025730     -0.755590
H      7.64558     10.35389      5.87395         0.348038      0.028097      0.160895
H      7.64558     10.62451     15.10445         0.944441     -0.242900      0.052563
H     13.33282     10.62451      5.87395        -0.803508     -0.143172      0.151912
H     13.33282     10.35389     15.10445        -0.903105     -0.439797      0.211066
H      5.87395      7.64558     10.35389         0.160689      0.723959     -0.320842
H     15.10445      7.64558     10.62451        -0.140931      0.380810     -0.016221
H      5.87395     13.33282     10.62451         0.156553     -0.510751     -0.101875
H     15.10445     13.33282     10.35389        -0.092159     -1.189520      0.103463
H      5.87395     10.35389      7.64558         0.137325      0.178513      0.515203
H     15.10445     10.62451      7.64558         0.006408      0.103850      1.026106
H      5.87395     10.62451     13.33282         0.071700     -0.039963     -0.463432
H     15.10445     10.35389     13.33282        -0.184966     -0.148593     -0.428557
H     10.35389      7.64558      5.87395         0.090330      1.014829      0.228068
H     10.62451      7.64558     15.10445         0.000640      0.269860     -0.158462
H     10.62451     13.33282      5.87395        -0.085949     -0.384010      0.320196
H     10.35389     13.33282     15.10445        -0.444989     -0.576734      0.004126
H      7.64558      5.87395     10.35389         0.537448      0.086892     -0.116808
H      7.64558     15.10445     10.62451         0.948851     -0.208681     -0.202081
H     13.33282      5.87395     10.62451        -0.590681      0.090068     -0.066351
H     13.33282     15.10445     10.35389        -0.582088     -0.063285      0.248364
H     12.45634     12.45634     19.01126         0.237201      0.277039     -0.237395
H     19.01126     19.01126     19.01126        -0.248634     -0.249178     -0.242381
H     19.01126     12.45634     12.45634        -0.267167      0.264820      0.219534
H     12.45634     19.01126     12.45634         0.237221     -0.267257      0.240207
C     10.35284      5.61067      6.59456        -0.226604     -0.682078      0.100727
C     10.62556     15.36773      6.59456        -0.050359      0.376493     -0.854829
C     10.62556      5.61067     14.38384        -0.005089     -0.054670      0.708759
C     10.35284     15.36773     14.38384         0.198141      0.699393      0.163817
C      6.59456     10.35284      5.61067        -0.354686     -0.015200     -0.308889
C      6.59456     10.62556     15.36773        -1.099574      0.258762      0.280921
C     14.38384     10.62556      5.61067         0.432364      0.380355     -0.681549
C     14.38384     10.35284     15.36773         1.087942      0.038794      0.226926
C      5.61067      6.59456     10.35284        -0.431907     -0.367264      0.360554
C     15.36773      6.59456     10.62556         0.187393     -0.492698      0.011244
C      5.61067     14.38384     10.62556        -0.203706      0.559402     -0.005582
C     15.36773     14.38384     10.35284         0.325260      0.038374     -0.116065
C      5.61067     10.35284      6.59456        -0.333267     -0.090882     -0.998397
C     15.36773     10.62556      6.59456         0.906595     -0.346456     -0.946874
C      5.61067     10.62556     14.38384        -0.428592      0.028848      0.296849
C     15.36773     10.35284     14.38384         0.651933     -0.098279      1.062404
C     10.35284      6.59456      5.61067        -0.246465     -0.575053     -0.942397
C     10.62556      6.59456     15.36773         0.060846     -0.259389      0.045712
C     10.62556     14.38384      5.61067         0.057825      1.206551     -0.419255
C     10.35284     14.38384     15.36773         0.276078      0.167334      0.721180
C      6.59456      5.61067     10.35284        -0.181625     -0.732688      0.163489
C      6.59456     15.36773     10.62556        -1.245452      0.245958      0.178587
C     14.38384      5.61067     10.62556         1.076743     -0.298266      0.038902
C     14.38384     15.36773     10.35284        -0.467129      0.794234     -0.405154
C     10.40319      3.19606      7.29314        -0.034617      0.900896     -0.424192
C     10.35913      4.25547      6.23373         0.056645     -0.518717      0.547123
C      0.08601      7.29314      7.29314        -0.021379     -0.400175     -0.348057
C      0.13007      6.23373      6.23373        -0.023688      0.015543      0.098668
C      0.08601      3.19606      3.19606         0.011492      1.276039      0.193016
C      0.13007      4.25547      4.25547        -0.046670     -0.223876     -0.197865
C     10.40319      7.29314      3.19606        -0.013849     -1.057931      0.373813
C     10.35913      6.23373      4.25547         0.041347      0.482720     -0.675914
C      7.29314     10.40319      3.19606        -0.313603      0.030001      0.732158
C      6.23373     10.35913      4.25547         0.143770      0.064785     -0.104491
C      7.29314      0.08601      7.29314        -0.659994     -0.018026     -0.271258
C      6.23373      0.13007      6.23373         0.380259     -0.078040      0.554066
C      3.19606      0.08601      3.19606         1.012961     -0.004278      0.258897
C      4.25547      0.13007      4.25547        -0.169013     -0.034942     -0.534363
C      3.19606     10.40319      7.29314         0.362282     -0.008680     -0.927850
C      4.25547     10.35913      6.23373        -0.278600      0.089720      0.235810
C      3.19606      7.29314     10.40319         0.522865     -1.352036     -0.036957
C      4.25547      6.23373     10.35913        -0.555965      0.733660      0.110582
C      7.29314      7.29314      0.08601        -0.390120     -0.235518      0.002319
C      6.23373      6.23373      0.13007         0.156770      0.149711     -0.002468
C      3.19606      3.19606      0.08601         0.264376      0.244899     -0.017159
C      4.25547      4.25547      0.13007        -0.123679     -0.053761      0.005425
C      7.29314      3.19606     10.40319        -0.396815      0.628565      0.007641
C      6.23373      4.25547     10.35913         1.077497     -0.134906      0.055843
O     10.43466      3.58206      8.50569        -0.024084      0.038875      0.443493
O     10.54374     17.39634      8.50569        -0.006484     -0.114182      0.465328
O     10.54374      3.58206     12.47271         0.039931     -0.107869     -0.127765
O     10.43466     17.39634     12.47271        -0.058906     -0.043625     -0.477067
O      8.50569     10.43466      3.58206         0.287157     -0.029691     -0.039997
O      8.50569     10.54374     17.39634         0.719146      0.027672     -0.204225
O     12.47271     10.54374      3.58206        -0.790267     -0.037186      0.148247
O     12.47271     10.43466     17.39634        -0.289825     -0.029570      0.030368
O      3.58206      8.50569     10.43466         0.161902      1.113168     -0.031976
O     17.39634      8.50569     10.54374        -0.099975      0.439182      0.058997
O      3.58206     12.47271     10.54374         0.068163     -0.398356      0.035641
O     17.39634     12.47271     10.43466        -0.158092     -0.675913     -0.009696
O      3.58206     10.43466      8.50569         0.070073     -0.068032      0.797016
O     17.39634     10.54374      8.50569        -0.062361      0.044585      0.333752
O      3.58206     10.54374     12.47271        -0.012502      0.036981     -0.242440
O     17.39634     10.43466     12.47271        -0.256935     -0.002033     -0.721696
O     10.43466      8.50569      3.58206         0.118837      0.837158      0.190844
O     10.54374      8.50569     17.39634         0.032396      0.601927     -0.143632
O     10.54374     12.47271      3.58206         0.008121     -1.011082      0.175484
O     10.43466     12.47271     17.39634        -0.042152     -0.943582     -0.211510
O      8.50569      3.58206     10.43466         0.565337      0.128702     -0.015528
O      8.50569     17.39634     10.54374         0.505234     -0.194048     -0.009867
O     12.47271      3.58206     10.54374        -0.478598      0.161966      0.059354
O     12.47271     17.39634     10.43466        -0.407975      0.031595     -0.007429
O     11.90042     11.90042     19.56718        -0.268771     -0.326084      0.258067
O     19.56718     19.56718     19.56718         0.278150      0.292792      0.283955
O     19.56718     11.90042     11.90042         0.301802     -0.300632     -0.202316
O     11.90042     19.56718     11.90042        -0.264306      0.285617     -0.248998
O      9.45224      1.03696      9.45224        -0.079911      0.048366     -0.058719
O      1.03696      9.45224      9.45224         0.043541     -0.152078     -0.113220
O      1.03696      1.03696      1.03696         0.025906      0.118991      0.196033
O      9.45224      9.45224      1.03696        -0.068517     -0.086629      0.118299
Zr     10.48920      2.52580     10.48920        -0.052784     -0.124018     -0.171309
Zr     10.48920     18.45260     10.48920         0.008774      0.213718     -0.024934
Zr     10.48920     10.48920      2.52580        -0.169496     -0.195514     -0.513046
Zr     10.48920     10.48920     18.45260         0.004655     -0.018295      0.433181
Zr      2.52580     10.48920     10.48920        -0.368179      0.303842      0.170464
Zr     18.45260     10.48920     10.48920         0.203416      0.065166     -0.205438
Pd      8.29306      9.67039     13.25555        -0.004716     -0.012153      0.009814
Pd     10.48278      9.43678     10.19250         0.009662      0.001751     -0.009734
Pd     12.98976      8.78561     12.47124         0.004758     -0.004309     -0.001368
Pd     10.29915     10.81486     15.06003        -0.001002      0.005569      0.004065
Pd     12.78884     11.36692     13.59207        -0.023414      0.004747      0.010485
Pd     14.85388     10.57984     11.36400        -0.018883     -0.008942     -0.021978
Pd      6.89610      7.46967     12.29775        -0.000070      0.000827      0.006991
Pd      9.20199      7.19147      9.45145         0.005592     -0.029804     -0.007492
Pd      9.58909      7.54178     12.20662        -0.006639     -0.018501      0.024750
Pd     11.75311      7.07377     10.79416         0.007898     -0.002486      0.011912
Pd     11.62006      7.82123      8.25772         0.002550      0.015950     -0.014912
Pd      7.17689     11.67355     11.51842        -0.004205     -0.018864      0.001059
Pd      9.28246     14.31275      9.24749         0.002505     -0.001772     -0.003487
Pd      8.12316     12.29637     14.00840         0.005418      0.013323      0.006917
Pd     14.23702     14.17027      8.35223        -0.003488      0.001205      0.010862
Pd     11.74063     13.28373      8.79528        -0.028371     -0.011004      0.008834
Pd     14.10758     11.59658      9.01737         0.019918      0.000756      0.002206
Pd      8.69690     13.98861     11.99484        -0.007041     -0.020490      0.004354
Pd     12.22109     14.01119     13.93693         0.015547     -0.009187     -0.021545
Pd     11.40668     14.13820     11.28862         0.003002      0.004146     -0.005018
Pd     14.00383     13.27142     12.09495        -0.011061     -0.016646      0.006884
Pd     12.26977     11.49716     10.91726        -0.012195     -0.006129     -0.001937
Pd     13.02416     12.58813      6.60087        -0.018092      0.003923     -0.008243
Pd     13.96171      8.83400      7.57928        -0.017347      0.004462      0.000808
Pd      6.96232      8.45163      8.37259         0.006485     -0.014643      0.012464
Pd      5.55708     10.01517     10.06622        -0.005301      0.005346      0.001334
Pd      9.39354      9.44967      7.43838        -0.009808      0.009057      0.012062
Pd      8.46898      6.96684      6.84833         0.007954     -0.009391      0.028385
Pd      9.67334     11.94719     10.51463         0.000170     -0.003754      0.003498
Pd     11.79043     10.60582      8.06214        -0.001448     -0.014806      0.001304
Pd     11.79416      8.92872      5.85038        -0.001705      0.011869      0.015639
Pd     10.62734     11.33843      5.73759        -0.002887     -0.018116     -0.017758
Ir     10.73759      9.85153     12.69569        -0.002116      0.023567      0.025500
Ir     13.13909      9.23705      9.95015         0.002241     -0.012585      0.011750
Ir     10.47833     12.30655     12.89158        -0.006804     -0.009219     -0.003381
Ir      7.76741     10.95480      9.06060         0.001003      0.002653     -0.006320
Ir      9.57413     12.05235      7.95560        -0.022033     -0.001553      0.026211
Ir      8.00519      9.16064     10.73459        -0.023733      0.018793     -0.016200
