152
# total energy = -1110.37164886 eVH     10.35389      5.87395      7.64558        -0.348985     -0.148438      1.051773
H     10.62451     15.10445      7.64558         0.371989      0.085709      0.944908
H     10.62451      5.87395     13.33282        -0.315305     -0.707164     -1.398571
H     10.35389     15.10445     13.33282        -0.626102      0.397467     -0.326669
H      7.64558     10.35389      5.87395         0.540623     -0.534614     -0.084608
H      7.64558     10.62451     15.10445         0.366297     -0.241510      0.042820
H     13.33282     10.62451      5.87395        -0.540171      0.621784     -0.025634
H     13.33282     10.35389     15.10445        -0.528706      0.410533      0.161607
H      5.87395      7.64558     10.35389         0.145228      0.517313      0.034823
H     15.10445      7.64558     10.62451         0.429853      0.906238      0.259255
H      5.87395     13.33282     10.62451        -0.226274     -0.463669      0.362997
H     15.10445     13.33282     10.35389         0.030448     -0.307776     -0.389048
H      5.87395     10.35389      7.64558        -0.074762     -0.358031      1.435137
H     15.10445     10.62451      7.64558         0.209586      0.441218      1.279991
H      5.87395     10.62451     13.33282        -0.168110     -0.348466     -1.154011
H     15.10445     10.35389     13.33282         0.550634      0.901303     -1.515168
H     10.35389      7.64558      5.87395        -0.539846      0.500070     -0.187299
H     10.62451      7.64558     15.10445        -0.139140      0.523676      0.191154
H     10.62451     13.33282      5.87395         0.894612     -1.392602     -0.325610
H     10.35389     13.33282     15.10445         0.272361     -0.552631     -0.079675
H      7.64558      5.87395     10.35389         0.718779      0.173786     -0.148199
H      7.64558     15.10445     10.62451         1.977159      0.796494      0.203550
H     13.33282      5.87395     10.62451        -2.691356     -0.968483     -0.450761
H     13.33282     15.10445     10.35389        -0.874409     -0.045427     -0.251504
H     12.45634     12.45634     19.01126         0.271856      0.257859     -0.227404
H     19.01126     19.01126     19.01126        -0.266796     -0.254780     -0.238312
H     19.01126     12.45634     12.45634        -0.282797      0.281022      0.187037
H     12.45634     19.01126     12.45634         0.255960     -0.251547      0.235962
C     10.35284      5.61067      6.59456         0.090626     -0.502348     -1.245075
C     10.62556     15.36773      6.59456         0.165666      0.764715     -0.833066
C     10.62556      5.61067     14.38384         0.177645     -0.322768      1.813781
C     10.35284     15.36773     14.38384         0.112945      0.390883      1.807622
C      6.59456     10.35284      5.61067        -1.125387     -0.110836     -0.854904
C      6.59456     10.62556     15.36773        -0.685260     -0.104183      0.748743
C     14.38384     10.62556      5.61067         0.873867     -0.112647     -1.001345
C     14.38384     10.35284     15.36773         1.203474      0.165514      1.102130
C      5.61067      6.59456     10.35284        -0.679726     -0.836138     -0.171400
C     15.36773      6.59456     10.62556         1.959349     -0.219375     -0.181193
C      5.61067     14.38384     10.62556        -1.577562     -0.005747     -0.120082
C     15.36773     14.38384     10.35284         0.486706      0.060853      0.023205
C      5.61067     10.35284      6.59456        -0.275389      0.196868     -1.347008
C     15.36773     10.62556      6.59456         0.280865     -0.215973     -1.001258
C      5.61067     10.62556     14.38384        -0.269673      0.401208      1.432106
C     15.36773     10.35284     14.38384         0.062016     -0.433743      1.913123
C     10.35284      6.59456      5.61067        -0.190510     -0.903844     -0.687371
C     10.62556      6.59456     15.36773        -0.103337     -0.788807      1.053097
C     10.62556     14.38384      5.61067        -0.490636      2.032853     -0.784089
C     10.35284     14.38384     15.36773        -0.286544      1.450053      0.478785
C      6.59456      5.61067     10.35284        -0.963487     -0.412238      0.081243
C      6.59456     15.36773     10.62556        -1.322039      0.363899     -0.330142
C     14.38384      5.61067     10.62556         1.291198     -1.203228      0.169706
C     14.38384     15.36773     10.35284         0.420978      0.316391      0.062900
C     10.40319      3.19606      7.29314         0.002628      0.309339     -0.100743
C     10.35913      4.25547      6.23373         0.138161     -0.522437      0.022728
C      0.08601      7.29314      7.29314        -0.053471     -0.304113     -0.427967
C      0.13007      6.23373      6.23373        -0.124952      0.717389      0.035537
C      0.08601      3.19606      3.19606        -0.108433      1.625726      0.173178
C      0.13007      4.25547      4.25547        -0.084483     -0.405292     -1.243024
C     10.40319      7.29314      3.19606         0.016919     -0.427727      0.127334
C     10.35913      6.23373      4.25547         0.260246      0.081130     -0.497395
C      7.29314     10.40319      3.19606        -1.661422      0.006729      0.325525
C      6.23373     10.35913      4.25547         0.652105      0.076069     -0.607655
C      7.29314      0.08601      7.29314        -0.401019     -0.011171     -0.302237
C      6.23373      0.13007      6.23373         0.655112     -0.054050      0.269824
C      3.19606      0.08601      3.19606         0.659569     -0.016069      0.188202
C      4.25547      0.13007      4.25547        -0.375410     -0.069223     -0.509551
C      3.19606     10.40319      7.29314         0.374615      0.018780     -0.316963
C      4.25547     10.35913      6.23373        -0.722484      0.062941      0.368309
C      3.19606      7.29314     10.40319         0.299899     -0.215875     -0.006444
C      4.25547      6.23373     10.35913         0.049969      0.648538      0.092537
C      7.29314      7.29314      0.08601        -0.716969     -0.599392     -0.018309
C      6.23373      6.23373      0.13007         0.840479      1.135020     -0.076473
C      3.19606      3.19606      0.08601         0.811375      0.495066      0.010756
C      4.25547      4.25547      0.13007        -0.322107     -1.729444     -0.126984
C      7.29314      3.19606     10.40319        -0.332092      0.277350     -0.003390
C      6.23373      4.25547     10.35913         0.515408     -0.032043      0.230453
O     10.43466      3.58206      8.50569        -0.047809      0.182027      0.258738
O     10.54374     17.39634      8.50569         0.041816     -0.231606      0.484946
O     10.54374      3.58206     12.47271         0.084719     -0.059413     -0.041262
O     10.43466     17.39634     12.47271        -0.023334     -0.139875     -0.277692
O      8.50569     10.43466      3.58206         0.981017      0.183539      0.388008
O      8.50569     10.54374     17.39634         0.568745      0.084072     -0.227242
O     12.47271     10.54374      3.58206        -0.429458     -0.038247      0.188691
O     12.47271     10.43466     17.39634        -0.521008     -0.070180     -0.198181
O      3.58206      8.50569     10.43466         0.180778      0.436699     -0.030619
O     17.39634      8.50569     10.54374        -0.229058      0.713543      0.043047
O      3.58206     12.47271     10.54374         0.159512     -0.669896      0.024678
O     17.39634     12.47271     10.43466        -0.185198     -0.482091     -0.012761
O      3.58206     10.43466      8.50569         0.221419     -0.059386      0.400701
O     17.39634     10.54374      8.50569        -0.170531      0.036681      0.410813
O      3.58206     10.54374     12.47271         0.144645      0.021092     -0.306901
O     17.39634     10.43466     12.47271         0.067986     -0.050094     -0.087721
O     10.43466      8.50569      3.58206        -0.000446      0.278733      0.180373
O     10.54374      8.50569     17.39634         0.070872      0.439173     -0.181779
O     10.54374     12.47271      3.58206        -0.222168     -0.965803      0.347511
O     10.43466     12.47271     17.39634        -0.084528     -0.448408     -0.244702
O      8.50569      3.58206     10.43466         0.497036      0.195855     -0.012814
O      8.50569     17.39634     10.54374         0.659690     -0.195509      0.022374
O     12.47271      3.58206     10.54374        -0.738244      0.278191      0.036367
O     12.47271     17.39634     10.43466        -0.440965     -0.200808     -0.044300
O     11.90042     11.90042     19.56718        -0.345493     -0.307348      0.259060
O     19.56718     19.56718     19.56718         0.325622      0.311222      0.282151
O     19.56718     11.90042     11.90042         0.278000     -0.277655     -0.141163
O     11.90042     19.56718     11.90042        -0.306745      0.287578     -0.233982
O      9.45224      1.03696      9.45224        -0.057685      0.071467     -0.047810
O      1.03696      9.45224      9.45224         0.035652     -0.072887     -0.072516
O      1.03696      1.03696      1.03696         0.057223      0.139136      0.104232
O      9.45224      9.45224      1.03696        -0.132021     -0.089168      0.104136
Zr     10.48920      2.52580     10.48920         0.147571     -0.165215     -0.161951
Zr     10.48920     18.45260     10.48920        -0.094480      0.179364     -0.043307
Zr     10.48920     10.48920      2.52580         0.327383     -0.309103     -0.197580
Zr     10.48920     10.48920     18.45260         0.003556     -0.084919      0.207175
Zr      2.52580     10.48920     10.48920        -0.065574      0.166388     -0.051630
Zr     18.45260     10.48920     10.48920         0.137491     -0.124066     -0.248258
Ir     12.05478     12.48659     10.46209        -0.003891     -0.001883     -0.000542
Ir     11.17365      7.41704     10.31375         0.020106      0.000278     -0.017906
Ir      8.81869      7.38367     11.57716         0.014087     -0.017006     -0.015621
Ir      7.48631     11.66173      7.65760        -0.002529     -0.004389      0.003222
Ir     11.59445     12.09325      7.12480         0.001926      0.000440      0.005156
Ir     13.74809      8.98328      7.55789         0.010545      0.001087     -0.004374
Ir     12.49751     13.95511      8.42122        -0.014745     -0.006693     -0.005339
Ir      9.71900     11.26692      5.56893         0.004393     -0.005308     -0.010755
Ir      9.08409     13.47372      7.07631        -0.004337     -0.011975      0.003001
Ir      9.28463      9.66306      7.53198        -0.005268      0.002998     -0.012814
Ir     13.26503      7.03795     11.95576         0.008383      0.014176      0.002323
Ir     13.56599      7.03149      9.12024         0.023590      0.009098     -0.008781
Ir     11.02463      7.60547     12.85675         0.020266     -0.006435     -0.017030
Ir     13.61334     11.56017      8.75588        -0.008579     -0.000035      0.001486
Ir     11.50354      9.65654      6.23766         0.004226     -0.017174     -0.003489
Ir      7.14632      9.18850      8.94412         0.003071     -0.016351     -0.008042
Ir     14.06189     11.42387     11.66217        -0.003755      0.011326     -0.003243
Ir     11.65030      9.86723      8.89803         0.020743     -0.014136     -0.008378
Ir      9.42720      9.52509     10.25096         0.010891     -0.001194     -0.004751
Ir     13.85849      9.39772     10.18936         0.007066      0.005675     -0.008800
Ir     13.80578      9.15473     12.91173         0.010023     -0.003526     -0.010745
Ir     11.68357      9.76507     11.57128         0.014484     -0.004022     -0.006254
Ir      9.90986     11.75568      8.97774         0.002835      0.000629     -0.006825
Ir      9.04892      7.43782      8.84025         0.018637     -0.006625     -0.024953
Ir     11.52957      7.58326      7.78648         0.040898     -0.015642     -0.019815
Ir      9.24676      9.50086     13.02046         0.006601     -0.008832      0.000477
Ir      7.52658     13.92207      8.99328        -0.005626     -0.012546      0.000079
Ir     10.90073     14.12177     11.94887        -0.011388     -0.008677     -0.000094
Ir     10.12561     14.17186      9.52344        -0.007310     -0.015326     -0.001725
Ir      9.79777     11.70492     11.72776         0.007335     -0.011581      0.000899
Ir      7.58778     11.59543     10.21344        -0.000218     -0.011358     -0.003246
Ir      8.36957     13.76679     11.58733        -0.010864     -0.009852     -0.002596
Ir      7.52794     11.59581     12.83140        -0.005366     -0.023742      0.001276
Ir      9.76693     11.63542     14.34336         0.002683     -0.016453      0.002947
Ir     13.49658     13.87800     12.19289        -0.016121     -0.000437     -0.001512
Ir     11.99686     12.05712     13.08598        -0.002200     -0.001006     -0.005475
Ir     11.56879      9.81749     14.21105         0.008005     -0.012835     -0.006786
Ir      7.14156      9.39764     11.50488         0.003360     -0.021683     -0.005104
