35
# total energy = -301.59770891 eVC      6.68786     10.30024      7.67807         0.016536     -0.030476     -0.011025
C      8.07687      9.95445      7.59167        -0.004768     -0.029901      0.011010
C      9.41238      5.71711      7.63401         0.004989     -0.026870     -0.056159
C      1.46641      5.34261      7.71087        -0.017833      0.011595      0.011965
C      4.19191      0.75863      7.64317         0.002303      0.045616     -0.050936
C      2.80162      1.10169      7.57149         0.027422      0.037872     -0.007717
C      0.70117      4.16409      7.67045         0.019758     -0.015266     -0.000327
C      1.08120      2.78429      7.58694         0.024197      0.004733      0.017263
C      5.35103      1.55467      7.61784         0.021095     -0.002616     -0.049727
C      5.52873      9.50566      7.72340        -0.010108      0.019313      0.005444
C     10.17968      6.89514      7.64757        -0.049251      0.001969     -0.040581
C      9.80161      8.27601      7.57382        -0.034350     -0.015912      0.004390
C      0.78107      6.57239      7.66211        -0.037289      0.001861      0.002916
C      1.27273      7.91537      7.58038        -0.004341      0.014162      0.049628
C     10.09954      4.48700      7.64019         0.016152     -0.011456     -0.026542
C      9.61099      3.14383      7.54147        -0.006567     -0.020960      0.006636
C      4.28127     10.15942      7.67623         0.003148      0.039941     -0.002984
C      2.95043      9.63476      7.59154        -0.000227      0.000049      0.045319
C      6.59804      0.89892      7.62678         0.012509     -0.018367     -0.017914
C      7.92896      1.42066      7.52905         0.022860      0.008573      0.021317
N      8.80364      0.33327      7.46256         0.005549      0.000905     -0.007822
N      0.16651      8.76455      7.48563         0.001931     -0.010739     -0.011535
N      8.55186      8.71694      7.60556        -0.006612     -0.001445      0.037679
N      2.33003      2.34014      7.60131         0.003051      0.011960      0.038839
N      2.07408     10.71933      7.49975         0.015897     -0.003724     -0.021128
N     10.71981      2.29653      7.47687        -0.013462     -0.008462     -0.021356
N      2.58941      8.30863      7.59674        -0.017818      0.029925      0.126794
N      8.29405      2.74688      7.52087         0.014238     -0.017022      0.037986
O      5.32318      2.88127      7.50176         0.018725      0.001129     -0.047282
O      5.56166      8.17686      7.79482        -0.016362      0.023391      0.041721
O      8.08453      5.71316      7.53157         0.004165     -0.023762     -0.070528
O      2.79547      5.34449      7.78090        -0.016383      0.003447      0.043224
Zr      6.54666      4.45266      7.33541        -0.004303     -0.007352      0.071575
Zr      4.34791      6.59474      7.86257        -0.006017      0.000193     -0.045304
Zr      0.02887     10.81135      6.86913         0.011164     -0.012302     -0.084840
