152
# total energy = -1110.37329242 eVH     10.35389      5.87395      7.64558        -0.350338     -0.146145      1.055976
H     10.62451     15.10445      7.64558         0.369198      0.084840      0.944389
H     10.62451      5.87395     13.33282        -0.317158     -0.705325     -1.395481
H     10.35389     15.10445     13.33282        -0.622684      0.399984     -0.328003
H      7.64558     10.35389      5.87395         0.540428     -0.533021     -0.085134
H      7.64558     10.62451     15.10445         0.368243     -0.241406      0.043524
H     13.33282     10.62451      5.87395        -0.543224      0.623562     -0.027334
H     13.33282     10.35389     15.10445        -0.527790      0.409860      0.161601
H      5.87395      7.64558     10.35389         0.145857      0.521262      0.034675
H     15.10445      7.64558     10.62451         0.430010      0.916078      0.260593
H      5.87395     13.33282     10.62451        -0.225666     -0.467168      0.362846
H     15.10445     13.33282     10.35389         0.030241     -0.306925     -0.388293
H      5.87395     10.35389      7.64558        -0.075581     -0.359933      1.434509
H     15.10445     10.62451      7.64558         0.210814      0.447270      1.283901
H      5.87395     10.62451     13.33282        -0.172889     -0.350957     -1.159687
H     15.10445     10.35389     13.33282         0.554064      0.906045     -1.515473
H     10.35389      7.64558      5.87395        -0.541651      0.500957     -0.185408
H     10.62451      7.64558     15.10445        -0.139806      0.518812      0.189431
H     10.62451     13.33282      5.87395         0.892087     -1.388824     -0.324660
H     10.35389     13.33282     15.10445         0.269407     -0.553404     -0.081325
H      7.64558      5.87395     10.35389         0.718295      0.173610     -0.149771
H      7.64558     15.10445     10.62451         1.977774      0.791918      0.206276
H     13.33282      5.87395     10.62451        -2.687906     -0.962554     -0.455522
H     13.33282     15.10445     10.35389        -0.874594     -0.046094     -0.251199
H     12.45634     12.45634     19.01126         0.271849      0.257848     -0.227316
H     19.01126     19.01126     19.01126        -0.266791     -0.254814     -0.238282
H     19.01126     12.45634     12.45634        -0.282830      0.281015      0.187047
H     12.45634     19.01126     12.45634         0.255924     -0.251464      0.236028
C     10.35284      5.61067      6.59456         0.089047     -0.502258     -1.242315
C     10.62556     15.36773      6.59456         0.166476      0.763541     -0.829421
C     10.62556      5.61067     14.38384         0.179004     -0.321377      1.812189
C     10.35284     15.36773     14.38384         0.110849      0.389469      1.805762
C      6.59456     10.35284      5.61067        -1.126659     -0.110607     -0.856552
C      6.59456     10.62556     15.36773        -0.687401     -0.103769      0.752428
C     14.38384     10.62556      5.61067         0.872268     -0.111785     -1.001680
C     14.38384     10.35284     15.36773         1.202426      0.165553      1.101673
C      5.61067      6.59456     10.35284        -0.678207     -0.842357     -0.172864
C     15.36773      6.59456     10.62556         1.962458     -0.226998     -0.181565
C      5.61067     14.38384     10.62556        -1.577373     -0.005549     -0.121604
C     15.36773     14.38384     10.35284         0.486682      0.063448      0.021282
C      5.61067     10.35284      6.59456        -0.276078      0.195874     -1.344751
C     15.36773     10.62556      6.59456         0.282170     -0.219300     -1.001486
C      5.61067     10.62556     14.38384        -0.267728      0.405108      1.436320
C     15.36773     10.35284     14.38384         0.058989     -0.435238      1.914421
C     10.35284      6.59456      5.61067        -0.188604     -0.899770     -0.686453
C     10.62556      6.59456     15.36773        -0.104627     -0.783971      1.053991
C     10.62556     14.38384      5.61067        -0.492144      2.028977     -0.783546
C     10.35284     14.38384     15.36773        -0.284723      1.444167      0.480701
C      6.59456      5.61067     10.35284        -0.964679     -0.412007      0.082383
C      6.59456     15.36773     10.62556        -1.317271      0.366128     -0.329672
C     14.38384      5.61067     10.62556         1.287793     -1.212738      0.172580
C     14.38384     15.36773     10.35284         0.424564      0.316197      0.064417
C     10.40319      3.19606      7.29314         0.002440      0.309077     -0.101270
C     10.35913      4.25547      6.23373         0.138333     -0.525378      0.021575
C      0.08601      7.29314      7.29314        -0.053323     -0.303024     -0.427457
C      0.13007      6.23373      6.23373        -0.124495      0.715366      0.034289
C      0.08601      3.19606      3.19606        -0.108103      1.626767      0.172973
C      0.13007      4.25547      4.25547        -0.084431     -0.404582     -1.240917
C     10.40319      7.29314      3.19606         0.016771     -0.428631      0.126870
C     10.35913      6.23373      4.25547         0.260174      0.081480     -0.499375
C      7.29314     10.40319      3.19606        -1.662214      0.006912      0.325447
C      6.23373     10.35913      4.25547         0.652408      0.075815     -0.607230
C      7.29314      0.08601      7.29314        -0.401761     -0.011400     -0.303521
C      6.23373      0.13007      6.23373         0.660242     -0.054134      0.268831
C      3.19606      0.08601      3.19606         0.659084     -0.016131      0.187898
C      4.25547      0.13007      4.25547        -0.375376     -0.070277     -0.513337
C      3.19606     10.40319      7.29314         0.373322      0.018811     -0.316574
C      4.25547     10.35913      6.23373        -0.722068      0.063722      0.367497
C      3.19606      7.29314     10.40319         0.298824     -0.214936     -0.006490
C      4.25547      6.23373     10.35913         0.049070      0.647919      0.092374
C      7.29314      7.29314      0.08601        -0.716921     -0.600578     -0.018774
C      6.23373      6.23373      0.13007         0.846442      1.133288     -0.075743
C      3.19606      3.19606      0.08601         0.812225      0.496744      0.010368
C      4.25547      4.25547      0.13007        -0.321792     -1.732238     -0.128014
C      7.29314      3.19606     10.40319        -0.331642      0.277123     -0.003399
C      6.23373      4.25547     10.35913         0.514200     -0.031200      0.230506
O     10.43466      3.58206      8.50569        -0.047881      0.182139      0.258860
O     10.54374     17.39634      8.50569         0.041901     -0.231768      0.484922
O     10.54374      3.58206     12.47271         0.084517     -0.059984     -0.040388
O     10.43466     17.39634     12.47271        -0.023335     -0.140074     -0.277145
O      8.50569     10.43466      3.58206         0.981070      0.183907      0.387598
O      8.50569     10.54374     17.39634         0.569484      0.084143     -0.227391
O     12.47271     10.54374      3.58206        -0.428825     -0.038331      0.188480
O     12.47271     10.43466     17.39634        -0.520188     -0.070111     -0.197967
O      3.58206      8.50569     10.43466         0.181079      0.435618     -0.030441
O     17.39634      8.50569     10.54374        -0.229423      0.713454      0.043364
O      3.58206     12.47271     10.54374         0.159695     -0.670897      0.024836
O     17.39634     12.47271     10.43466        -0.185349     -0.481692     -0.012505
O      3.58206     10.43466      8.50569         0.221631     -0.059445      0.400899
O     17.39634     10.54374      8.50569        -0.170729      0.036706      0.411103
O      3.58206     10.54374     12.47271         0.145064      0.021106     -0.306531
O     17.39634     10.43466     12.47271         0.068425     -0.050013     -0.087033
O     10.43466      8.50569      3.58206        -0.000197      0.278670      0.180666
O     10.54374      8.50569     17.39634         0.070826      0.438806     -0.181498
O     10.54374     12.47271      3.58206        -0.222149     -0.966094      0.347152
O     10.43466     12.47271     17.39634        -0.084431     -0.448642     -0.244776
O      8.50569      3.58206     10.43466         0.496451      0.195894     -0.012561
O      8.50569     17.39634     10.54374         0.660098     -0.196118      0.022347
O     12.47271      3.58206     10.54374        -0.738863      0.278384      0.036439
O     12.47271     17.39634     10.43466        -0.440376     -0.201235     -0.044162
O     11.90042     11.90042     19.56718        -0.345628     -0.307359      0.259209
O     19.56718     19.56718     19.56718         0.325501      0.311299      0.282347
O     19.56718     11.90042     11.90042         0.277787     -0.277449     -0.141013
O     11.90042     19.56718     11.90042        -0.306627      0.287324     -0.233916
O      9.45224      1.03696      9.45224        -0.057967      0.071588     -0.047565
O      1.03696      9.45224      9.45224         0.035692     -0.073058     -0.072283
O      1.03696      1.03696      1.03696         0.057409      0.139537      0.103905
O      9.45224      9.45224      1.03696        -0.132545     -0.089499      0.103826
Zr     10.48920      2.52580     10.48920         0.148753     -0.165604     -0.162156
Zr     10.48920     18.45260     10.48920        -0.095104      0.179736     -0.043834
Zr     10.48920     10.48920      2.52580         0.327991     -0.308865     -0.197276
Zr     10.48920     10.48920     18.45260         0.004101     -0.085205      0.206730
Zr      2.52580     10.48920     10.48920        -0.065904      0.167436     -0.051779
Zr     18.45260     10.48920     10.48920         0.138185     -0.124621     -0.248412
Ir     12.05356     12.48610     10.46207         0.001732     -0.006577     -0.014292
Ir     11.17835      7.41691     10.31010         0.014003      0.002780     -0.019673
Ir      8.82282      7.38032     11.57409         0.018027     -0.008296     -0.014896
Ir      7.48631     11.66055      7.65863        -0.007739     -0.008672     -0.000064
Ir     11.59420     12.09256      7.12482         0.001676     -0.010483     -0.006967
Ir     13.75084      8.98489      7.55617         0.019315      0.003928     -0.014058
Ir     12.49522     13.95510      8.42078        -0.009776      0.000966     -0.002336
Ir      9.71993     11.26636      5.56786         0.008902     -0.007214     -0.009156
Ir      9.08343     13.47290      7.07668        -0.002284     -0.009885     -0.001833
Ir      9.28331      9.66314      7.53026        -0.001838      0.004752     -0.011589
Ir     13.26794      7.03783     11.95656         0.011551      0.002855     -0.004559
Ir     13.57217      7.03318      9.11934         0.026959     -0.002395     -0.000603
Ir     11.02789      7.60429     12.85380         0.008445     -0.003468     -0.018493
Ir     13.61241     11.56070      8.75555        -0.005555      0.005718      0.003275
Ir     11.50359      9.65438      6.23710        -0.000499     -0.009552     -0.005624
Ir      7.14765      9.18442      8.94280         0.002797     -0.013722     -0.007264
Ir     14.06229     11.42563     11.66130        -0.000957      0.003488     -0.004156
Ir     11.65163      9.86495      8.89595         0.001076     -0.010269     -0.005961
Ir      9.42854      9.52279     10.24940         0.012557     -0.000853     -0.001858
Ir     13.85989      9.39931     10.18821         0.014021      0.007259     -0.002163
Ir     13.80735      9.15532     12.90963         0.016089      0.006187     -0.006257
Ir     11.68514      9.76469     11.56963         0.006650     -0.004639     -0.006744
Ir      9.90968     11.75406      8.97673         0.003303     -0.020789     -0.000169
Ir      9.05435      7.43670      8.83605         0.021044     -0.004922     -0.023862
Ir     11.53801      7.57973      7.78292         0.032094     -0.019995     -0.021578
Ir      9.24810      9.49804     13.01989         0.008401     -0.009289     -0.007385
Ir      7.52531     13.91963      8.99402        -0.009243     -0.008134      0.001016
Ir     10.89807     14.11917     11.94940        -0.016660      0.004997      0.008945
Ir     10.12447     14.16938      9.52375        -0.009188     -0.002611     -0.004041
Ir      9.79746     11.70287     11.72769        -0.009125     -0.020736      0.003689
Ir      7.58743     11.59216     10.21376         0.002843     -0.015910      0.002515
Ir      8.36733     13.76399     11.58750        -0.011843     -0.010958     -0.001091
Ir      7.52741     11.59095     12.83148         0.003676     -0.022169     -0.005520
Ir      9.76763     11.63258     14.34335         0.005388     -0.018207      0.000762
Ir     13.49403     13.87843     12.19252        -0.009232      0.008453     -0.000686
Ir     11.99676     12.05595     13.08504        -0.006585     -0.011226      0.008962
Ir     11.56998      9.81507     14.20986         0.005999     -0.007365     -0.012150
Ir      7.14299      9.39245     11.50388         0.009909     -0.019011     -0.006866
