152
# total energy = -1005.91314938 eVH     10.35389      5.87395      7.64558         0.176797      0.077952      0.573487
H     10.62451     15.10445      7.64558        -0.106188     -0.151719      0.512304
H     10.62451      5.87395     13.33282         0.489875      0.114311     -0.598184
H     10.35389     15.10445     13.33282         0.052717     -0.178657     -0.492312
H      7.64558     10.35389      5.87395         0.360065      0.030446      0.171825
H      7.64558     10.62451     15.10445         0.709824      0.499390     -0.045556
H     13.33282     10.62451      5.87395        -0.473988      0.359646      0.107502
H     13.33282     10.35389     15.10445        -0.804888     -0.069388     -0.004605
H      5.87395      7.64558     10.35389         0.273004      1.067979      0.008495
H     15.10445      7.64558     10.62451        -0.102912      0.482890      0.283609
H      5.87395     13.33282     10.62451         0.150926     -0.685155     -0.177990
H     15.10445     13.33282     10.35389        -0.043082     -1.005413     -0.260828
H      5.87395     10.35389      7.64558         0.230622      0.027215      0.476726
H     15.10445     10.62451      7.64558        -0.131393      0.449221      0.792942
H      5.87395     10.62451     13.33282         0.146981      0.358167     -0.720280
H     15.10445     10.35389     13.33282        -0.073546     -0.043670     -0.676390
H     10.35389      7.64558      5.87395         0.330690      1.107494      0.046660
H     10.62451      7.64558     15.10445         0.590237      0.586043     -0.127932
H     10.62451     13.33282      5.87395        -0.403425     -0.801816      0.232693
H     10.35389     13.33282     15.10445        -0.053215     -0.457029     -0.249204
H      7.64558      5.87395     10.35389         0.915393      0.058239     -0.251723
H      7.64558     15.10445     10.62451         0.830264     -0.188626     -0.024618
H     13.33282      5.87395     10.62451        -0.779023      0.191197      0.574604
H     13.33282     15.10445     10.35389        -0.404084     -0.111101     -0.116822
H     12.45634     12.45634     19.01126         0.239827      0.268209     -0.238846
H     19.01126     19.01126     19.01126        -0.262042     -0.243250     -0.258790
H     19.01126     12.45634     12.45634        -0.269524      0.265978      0.223041
H     12.45634     19.01126     12.45634         0.233501     -0.261940      0.270457
C     10.35284      5.61067      6.59456        -0.359210     -0.689778     -0.025100
C     10.62556     15.36773      6.59456         0.082205      0.360898     -0.278286
C     10.62556      5.61067     14.38384        -0.282265     -0.431772     -0.250818
C     10.35284     15.36773     14.38384         0.003342      0.254838      0.483366
C      6.59456     10.35284      5.61067        -0.355059      0.000219     -0.256491
C      6.59456     10.62556     15.36773        -0.334474     -0.167990      0.750013
C     14.38384     10.62556      5.61067        -0.233047     -0.427125     -0.555094
C     14.38384     10.35284     15.36773         0.967337     -0.075400      0.195312
C      5.61067      6.59456     10.35284        -0.560828     -0.032606     -0.288077
C     15.36773      6.59456     10.62556         0.562055      0.000037     -0.255164
C      5.61067     14.38384     10.62556        -0.323297      0.989081      0.072383
C     15.36773     14.38384     10.35284         0.276899      1.013950      0.052489
C      5.61067     10.35284      6.59456        -0.236066     -0.045808     -0.657701
C     15.36773     10.62556      6.59456         0.432032     -0.268903      0.126847
C      5.61067     10.62556     14.38384        -0.644898     -0.310260     -0.082077
C     15.36773     10.35284     14.38384         0.399440     -0.051958      1.027225
C     10.35284      6.59456      5.61067        -0.226383     -0.536507     -0.568604
C     10.62556      6.59456     15.36773        -0.217783      0.075271      0.477591
C     10.62556     14.38384      5.61067         0.215206      1.038397     -0.334246
C     10.35284     14.38384     15.36773         0.001102      0.677175      0.386364
C      6.59456      5.61067     10.35284        -0.099305     -0.993392      0.252013
C      6.59456     15.36773     10.62556        -1.004285      0.262093      0.092741
C     14.38384      5.61067     10.62556         0.408782     -0.530377     -0.372775
C     14.38384     15.36773     10.35284         0.188282      0.421028     -0.071232
C     10.40319      3.19606      7.29314         0.013290      0.718970     -0.496796
C     10.35913      4.25547      6.23373         0.082227     -0.585172      0.061001
C      0.08601      7.29314      7.29314        -0.047943     -0.453357     -0.313749
C      0.13007      6.23373      6.23373        -0.035675      0.100056      0.580179
C      0.08601      3.19606      3.19606         0.004724      1.350861      0.294077
C      0.13007      4.25547      4.25547         0.048767     -0.739874     -0.196503
C     10.40319      7.29314      3.19606         0.010080     -0.311746      0.287344
C     10.35913      6.23373      4.25547         0.021227      0.032406     -0.742067
C      7.29314     10.40319      3.19606        -0.253852      0.019277      0.568333
C      6.23373     10.35913      4.25547         0.159577      0.052011     -0.069165
C      7.29314      0.08601      7.29314        -0.568795     -0.067133     -0.360447
C      6.23373      0.13007      6.23373         0.704888     -0.084482      0.471109
C      3.19606      0.08601      3.19606         0.920917     -0.023486      0.592066
C      4.25547      0.13007      4.25547        -0.599299     -0.077018     -0.531377
C      3.19606     10.40319      7.29314         0.472924     -0.010351     -0.774737
C      4.25547     10.35913      6.23373        -0.285804      0.073869      0.200542
C      3.19606      7.29314     10.40319         0.296247     -1.281094      0.036108
C      4.25547      6.23373     10.35913        -0.955549      0.084318      0.126685
C      7.29314      7.29314      0.08601        -0.414558     -0.386865     -0.022186
C      6.23373      6.23373      0.13007         0.461703      0.234663     -0.004460
C      3.19606      3.19606      0.08601         0.483319      0.384560     -0.041112
C      4.25547      4.25547      0.13007        -0.151939     -0.646950     -0.032107
C      7.29314      3.19606     10.40319        -0.352025      0.438651      0.064906
C      6.23373      4.25547     10.35913         0.303907     -0.695729      0.145712
O     10.43466      3.58206      8.50569        -0.009504      0.098158      0.500716
O     10.54374     17.39634      8.50569         0.039438     -0.164250      0.487037
O     10.54374      3.58206     12.47271         0.040146     -0.108915     -0.180162
O     10.43466     17.39634     12.47271        -0.037198     -0.182590     -0.515001
O      8.50569     10.43466      3.58206         0.266489     -0.018591      0.012723
O      8.50569     10.54374     17.39634         0.651417      0.021311     -0.152037
O     12.47271     10.54374      3.58206        -0.818113      0.097468      0.103279
O     12.47271     10.43466     17.39634        -0.432379      0.026332     -0.089440
O      3.58206      8.50569     10.43466         0.151657      1.038379     -0.024109
O     17.39634      8.50569     10.54374        -0.160941      0.549915      0.075286
O      3.58206     12.47271     10.54374         0.087181     -0.383336      0.054576
O     17.39634     12.47271     10.43466        -0.152555     -0.535247     -0.025390
O      3.58206     10.43466      8.50569         0.079663     -0.072276      0.613044
O     17.39634     10.54374      8.50569        -0.096827      0.074978      0.512097
O      3.58206     10.54374     12.47271        -0.001772      0.037313     -0.486722
O     17.39634     10.43466     12.47271        -0.236334     -0.040833     -0.645742
O     10.43466      8.50569      3.58206        -0.037030      0.444538      0.141703
O     10.54374      8.50569     17.39634         0.034966      0.558607     -0.155851
O     10.54374     12.47271      3.58206         0.033122     -1.049440      0.164995
O     10.43466     12.47271     17.39634         0.039707     -0.725054     -0.182516
O      8.50569      3.58206     10.43466         0.537248      0.153430     -0.058373
O      8.50569     17.39634     10.54374         0.493446     -0.194499      0.013714
O     12.47271      3.58206     10.54374        -0.623030      0.215913      0.000956
O     12.47271     17.39634     10.43466        -0.242944      0.058354     -0.043650
O     11.90042     11.90042     19.56718        -0.246420     -0.285072      0.243953
O     19.56718     19.56718     19.56718         0.311099      0.299263      0.296485
O     19.56718     11.90042     11.90042         0.302566     -0.263415     -0.236934
O     11.90042     19.56718     11.90042        -0.239133      0.299060     -0.315063
O      9.45224      1.03696      9.45224        -0.011563      0.091768     -0.083862
O      1.03696      9.45224      9.45224         0.088413     -0.082849     -0.137986
O      1.03696      1.03696      1.03696         0.096239      0.188769      0.053222
O      9.45224      9.45224      1.03696        -0.103035     -0.104228      0.035530
Zr     10.48920      2.52580     10.48920        -0.130222     -0.285546     -0.006712
Zr     10.48920     18.45260     10.48920        -0.069649      0.201507      0.068259
Zr     10.48920     10.48920      2.52580        -0.084404     -0.403915     -0.262392
Zr     10.48920     10.48920     18.45260        -0.244270     -0.122867      0.334668
Zr      2.52580     10.48920     10.48920        -0.377343      0.218013      0.250966
Zr     18.45260     10.48920     10.48920         0.216880      0.000173     -0.193922
Pd     13.59555      8.92475      9.25833        -0.004274      0.000336     -0.001987
Pd      5.63897      9.88747     10.12777         0.014375     -0.016581      0.026653
Pd      6.76016     11.84392     11.67166         0.022824     -0.027002      0.008312
Pd     12.17365     13.06196      7.32168        -0.018569     -0.013282      0.000779
Pd     11.95762      7.81090      7.39038        -0.010535     -0.016436      0.000215
Pd      8.29062      7.01419      6.57664         0.004178     -0.020223      0.005278
Pd     10.84539     11.21776      5.60777        -0.042593     -0.009779      0.005349
Pd     14.49738      8.54081      6.78208        -0.016536      0.004760     -0.007176
Pd      9.67533     11.78452      8.02566         0.007601     -0.009338      0.018862
Pd      6.84500      6.80280     12.28039        -0.049218      0.000465      0.012804
Pd      6.41299      7.72867      8.25854         0.015100      0.034161     -0.009161
Pd      6.60411      8.54245     14.26082        -0.018723     -0.006443      0.020539
Pd     11.49243      6.48715      9.75225         0.014114      0.015160      0.024002
Pd      9.63000      9.27566      7.05393        -0.016703     -0.010861      0.018076
Pd      9.00881     13.98936      9.32911        -0.002786      0.008726     -0.012593
Pd      9.54621      7.33997     11.72000         0.029286     -0.012755     -0.006451
Pd     10.53871      8.96906      9.65287         0.013377      0.008566      0.003496
Pd      9.31508     11.46403     10.61923         0.005259      0.018657      0.010021
Pd      8.88653      7.01120      9.14808         0.008560      0.007728      0.003950
Pd      8.58429      6.64607     14.24795         0.001100     -0.020079     -0.042244
Pd      7.72104      9.34059     11.87326         0.013523     -0.042283      0.002524
Pd     11.98309     10.45089      7.82096         0.005662     -0.017339     -0.021783
Pd      7.13926     12.03322      9.02703         0.002038     -0.001194      0.007923
Pd      8.05315      9.56862      9.16157         0.009833      0.006410      0.031398
Pd     14.03877      6.46608      8.49697         0.002955      0.003158     -0.004009
Pd     12.44871      8.27243     11.55942         0.028506      0.017691      0.014243
Pd      8.74141     11.56717     13.38209         0.013681      0.000703      0.004974
Pd     13.91954     11.94204      9.00126        -0.006097      0.004177     -0.007598
Pd     12.89951     10.60956     13.06072         0.019698      0.019983     -0.001573
Pd     14.77900     10.40505     11.12533         0.004166      0.004520     -0.011367
Pd     12.07924     10.81374     10.54196         0.003452      0.016973     -0.005681
Pd     11.45697     13.24176      9.85738        -0.001842      0.021291      0.009048
Pd     13.58652     12.86693     11.64814         0.007118      0.011787     -0.006282
Pd     11.08149     12.57882     12.45893         0.015944      0.006172      0.015395
Pd     10.96226     11.17771     14.81443        -0.003535     -0.035341     -0.005075
Pd     10.45131      9.74251     12.40258         0.019089      0.007416     -0.007770
Pd      9.15622      9.20650     14.54124        -0.030351     -0.021521     -0.051468
Pd      8.77274     13.79503     11.98024         0.023760      0.007179     -0.003263
