10
# total energy = -65.10008644 eVH      2.09349      1.08426      7.50000         0.033685      0.017446     -0.000000
H      3.43085      1.77690      7.50000        -0.033685     -0.017446      0.000000
C      4.38644      2.27182      7.50000        -0.000832     -0.000431      0.000000
C      1.13791      0.58934      7.50000         0.000832      0.000431      0.000000
N      0.06973      1.38277      7.50000         0.002774     -0.005971     -0.000000
N      5.45461      1.47839      7.50000        -0.002774      0.005971      0.000000
N      1.16962     -0.74090      7.50000        -0.003276      0.005711     -0.000000
N      4.35473      3.60206      7.50000         0.003276     -0.005711      0.000000
Pd      2.76217     -1.95131      7.50000         0.000000     -0.000000      0.000000
Pd      0.00000      3.38190      7.50000         0.000000     -0.000000      0.000000
