152
# total energy = -1060.03570665 eVH     10.35389      5.87395      7.64558        -0.268225      0.009377      1.142147
H     10.62451     15.10445      7.64558         0.057116     -0.089740      0.927009
H     10.62451      5.87395     13.33282        -0.244493      0.084647     -0.788548
H     10.35389     15.10445     13.33282         0.100603     -0.299198     -0.891215
H      7.64558     10.35389      5.87395         0.932063     -0.120584      0.182941
H      7.64558     10.62451     15.10445         0.333961     -0.042006     -0.076066
H     13.33282     10.62451      5.87395        -0.870368      0.211190      0.202847
H     13.33282     10.35389     15.10445        -0.277955     -0.011530     -0.068990
H      5.87395      7.64558     10.35389         0.089036      0.415494     -0.012128
H     15.10445      7.64558     10.62451         0.008502      0.508157     -0.030712
H      5.87395     13.33282     10.62451        -0.016851     -0.960382      0.076851
H     15.10445     13.33282     10.35389        -0.081677     -0.319422      0.004591
H      5.87395     10.35389      7.64558         0.274210      0.116884      0.413645
H     15.10445     10.62451      7.64558        -0.125159     -0.174709      0.654216
H      5.87395     10.62451     13.33282        -0.087541      0.457553     -0.619398
H     15.10445     10.35389     13.33282         0.257959     -0.643834     -0.816984
H     10.35389      7.64558      5.87395        -0.044557      0.480908      0.331324
H     10.62451      7.64558     15.10445         0.228147      0.754946     -0.041377
H     10.62451     13.33282      5.87395         0.125012     -0.568167      0.206090
H     10.35389     13.33282     15.10445         0.043031     -0.286152     -0.137826
H      7.64558      5.87395     10.35389         0.339793      0.094978      0.020712
H      7.64558     15.10445     10.62451         0.373050     -0.115528      0.158967
H     13.33282      5.87395     10.62451        -0.317148      0.127934     -0.035086
H     13.33282     15.10445     10.35389        -0.652405     -0.132932      0.146587
H     12.45634     12.45634     19.01126         0.255065      0.270786     -0.229271
H     19.01126     19.01126     19.01126        -0.245867     -0.268444     -0.245474
H     19.01126     12.45634     12.45634        -0.251479      0.269312      0.235109
H     12.45634     19.01126     12.45634         0.290738     -0.235977      0.234151
C     10.35284      5.61067      6.59456         0.396956     -0.425726     -1.456790
C     10.62556     15.36773      6.59456        -0.158741      0.577972     -0.634120
C     10.62556      5.61067     14.38384         0.385860     -0.346826      0.842928
C     10.35284     15.36773     14.38384        -0.232554      0.223979      1.102915
C      6.59456     10.35284      5.61067        -1.374956      0.018942     -0.239979
C      6.59456     10.62556     15.36773        -0.649523      0.060453      0.379377
C     14.38384     10.62556      5.61067         1.311811     -0.174237     -0.624369
C     14.38384     10.35284     15.36773         0.372238     -0.122669      0.357892
C      5.61067      6.59456     10.35284        -0.292393     -0.633409     -0.015743
C     15.36773      6.59456     10.62556         0.421073     -0.992174      0.030390
C      5.61067     14.38384     10.62556        -0.126963      1.160464     -0.180303
C     15.36773     14.38384     10.35284         0.457194      0.646040     -0.026081
C      5.61067     10.35284      6.59456        -0.367311     -0.100532     -0.715767
C     15.36773     10.62556      6.59456         0.416424      0.121098     -0.742897
C      5.61067     10.62556     14.38384        -0.383439     -0.173160      1.225325
C     15.36773     10.35284     14.38384         0.280455      0.192914      1.497192
C     10.35284      6.59456      5.61067        -0.051254     -0.712181     -0.620118
C     10.62556      6.59456     15.36773        -0.093386     -0.841871      0.346634
C     10.62556     14.38384      5.61067        -0.462517      0.412760     -0.701815
C     10.35284     14.38384     15.36773        -0.153725      0.591988      0.415052
C      6.59456      5.61067     10.35284        -0.506250     -0.337769      0.034148
C      6.59456     15.36773     10.62556        -0.389226      0.460563      0.052409
C     14.38384      5.61067     10.62556         0.448016     -0.384027      0.003809
C     14.38384     15.36773     10.35284         1.119783      0.499985     -0.071581
C     10.40319      3.19606      7.29314         0.001316      0.649780     -0.336632
C     10.35913      4.25547      6.23373         0.005577     -0.441002      0.289325
C      0.08601      7.29314      7.29314        -0.013137     -0.359384     -0.500050
C      0.13007      6.23373      6.23373        -0.076137      0.836151      0.061306
C      0.08601      3.19606      3.19606        -0.001963      0.674435      0.269225
C      0.13007      4.25547      4.25547         0.025555     -0.269376     -0.532937
C     10.40319      7.29314      3.19606        -0.067078     -1.158255      0.562667
C     10.35913      6.23373      4.25547        -0.038129      0.369939     -0.197572
C      7.29314     10.40319      3.19606        -1.083302     -0.057826      0.187423
C      6.23373     10.35913      4.25547         0.364256      0.082743     -0.538572
C      7.29314      0.08601      7.29314        -0.415365      0.033679     -0.552559
C      6.23373      0.13007      6.23373         0.179346      0.131461      0.129937
C      3.19606      0.08601      3.19606         0.698271      0.024291      0.163876
C      4.25547      0.13007      4.25547        -0.170654     -0.053631     -0.364297
C      3.19606     10.40319      7.29314         0.385103     -0.025115     -0.871726
C      4.25547     10.35913      6.23373        -0.159578     -0.082752      0.096159
C      3.19606      7.29314     10.40319         0.602409     -0.390067      0.002135
C      4.25547      6.23373     10.35913        -0.115401      0.182153     -0.000149
C      7.29314      7.29314      0.08601        -0.405102     -0.324629     -0.014940
C      6.23373      6.23373      0.13007         0.195450      0.191988     -0.060235
C      3.19606      3.19606      0.08601         0.289961      0.478921     -0.023524
C      4.25547      4.25547      0.13007        -0.399678     -0.227964     -0.030972
C      7.29314      3.19606     10.40319        -0.281115      0.591033     -0.012801
C      6.23373      4.25547     10.35913         0.004025     -0.120023      0.021387
O     10.43466      3.58206      8.50569        -0.029554      0.100879      0.326884
O     10.54374     17.39634      8.50569         0.064853     -0.132856      0.592372
O     10.54374      3.58206     12.47271         0.027255      0.107473     -0.391028
O     10.43466     17.39634     12.47271         0.088935     -0.044962     -0.370840
O      8.50569     10.43466      3.58206         0.711160     -0.060358      0.012635
O      8.50569     10.54374     17.39634         0.458344      0.055750     -0.072343
O     12.47271     10.54374      3.58206        -0.651320      0.114971      0.204382
O     12.47271     10.43466     17.39634        -0.285834     -0.004939      0.014926
O      3.58206      8.50569     10.43466         0.043606      0.462486     -0.066777
O     17.39634      8.50569     10.54374        -0.061320      0.459190      0.055567
O      3.58206     12.47271     10.54374         0.114366     -0.583806      0.002435
O     17.39634     12.47271     10.43466        -0.168755     -0.739742     -0.060204
O      3.58206     10.43466      8.50569         0.215857     -0.062957      0.779374
O     17.39634     10.54374      8.50569        -0.112529      0.076894      0.587447
O      3.58206     10.54374     12.47271        -0.000165     -0.001550     -0.269395
O     17.39634     10.43466     12.47271         0.041455     -0.013425     -0.215710
O     10.43466      8.50569      3.58206        -0.104081      0.573265     -0.117247
O     10.54374      8.50569     17.39634         0.065960      0.503328     -0.096775
O     10.54374     12.47271      3.58206         0.105131     -0.623487      0.133935
O     10.43466     12.47271     17.39634        -0.060758     -0.634672     -0.243828
O      8.50569      3.58206     10.43466         0.398273      0.027943     -0.032919
O      8.50569     17.39634     10.54374         0.628056     -0.153140      0.049678
O     12.47271      3.58206     10.54374        -0.508097      0.126804      0.037041
O     12.47271     17.39634     10.43466        -0.622280     -0.136865      0.037630
O     11.90042     11.90042     19.56718        -0.274122     -0.308210      0.236222
O     19.56718     19.56718     19.56718         0.302114      0.318667      0.299810
O     19.56718     11.90042     11.90042         0.285245     -0.324907     -0.230939
O     11.90042     19.56718     11.90042        -0.317445      0.229841     -0.201831
O      9.45224      1.03696      9.45224        -0.084997      0.083644     -0.066545
O      1.03696      9.45224      9.45224         0.100759     -0.116895     -0.044728
O      1.03696      1.03696      1.03696         0.083271      0.055583      0.098789
O      9.45224      9.45224      1.03696        -0.060666     -0.131855      0.130943
Zr     10.48920      2.52580     10.48920         0.031590     -0.087987      0.068969
Zr     10.48920     18.45260     10.48920        -0.169901      0.261842     -0.345764
Zr     10.48920     10.48920      2.52580         0.121862      0.356337     -0.353219
Zr     10.48920     10.48920     18.45260        -0.081383     -0.195769      0.174665
Zr      2.52580     10.48920     10.48920        -0.254530      0.125197      0.222586
Zr     18.45260     10.48920     10.48920         0.230454     -0.111612      0.004844
Pd      9.38977     14.23319      9.37990         0.009248      0.043812     -0.036644
Pd      8.62856     13.71114     12.98232        -0.012468     -0.014332      0.007828
Pd     12.02278     14.41495      8.75118         0.017149     -0.000357     -0.009740
Pd     12.77667     12.80299     10.61482        -0.020244      0.020731      0.025858
Pd     12.16090      7.10171     12.60422        -0.017679      0.016582      0.018036
Pd     11.23081     14.81234     11.52294        -0.033391      0.035700     -0.032970
Pd     10.10289     12.47228     11.14070        -0.044397      0.042098     -0.051479
Pd     13.47965     12.13605      7.97538         0.006491      0.001239      0.010052
Pd     11.47812     11.55440      6.11539         0.006862      0.006708     -0.006641
Pd      7.84826      8.57920      7.55012         0.013934     -0.037440     -0.010854
Pd      8.74405     11.72552      6.89615        -0.007698      0.006356     -0.017955
Pd     10.31495      9.45785      8.13491        -0.007677      0.010159      0.013100
Pd      8.50901     14.42583      6.86478        -0.002923      0.013372     -0.036293
Pd     12.37755      9.03171      6.57856        -0.013156      0.007231      0.014491
Pd      9.74560      9.60758      5.54940         0.002487      0.002267      0.006117
Pd      6.88294      9.46047     12.19287        -0.010758      0.002023     -0.002166
Pd     12.20884      6.67847      7.85421        -0.000132      0.016961      0.023840
Pd      5.96272     10.47939      9.73742        -0.015496     -0.026514     -0.012585
Pd      7.57604      7.10769     13.21934         0.006875      0.041152      0.058722
Ir     11.82590      9.69137     13.06071        -0.035791      0.008906     -0.000533
Ir     13.58946      8.98459     11.43410        -0.014933      0.012206      0.014769
Ir      9.42771      8.81833     13.83361        -0.003323      0.012903      0.070941
Ir     10.57401     10.91186     14.86029        -0.011564     -0.005869      0.039919
Ir      7.30651     12.04153     11.37414        -0.017973     -0.018657     -0.005525
Ir     14.70219     10.82324     10.07229        -0.013495      0.021826      0.039921
Ir     12.20631     10.46336      9.65049        -0.006219      0.027233      0.004807
Ir      8.78113     11.04920     13.03558         0.008807     -0.000523     -0.025943
Ir     10.15679      9.83888     11.24169        -0.017122      0.026709     -0.036983
Ir     13.79332     11.35693     12.39013        -0.047208      0.008440      0.038116
Ir     11.69114     12.28908     13.11615        -0.072855     -0.000435     -0.001436
Ir      8.54443     11.06412      9.39870        -0.017867      0.011613     -0.021087
Ir     11.59812      7.96435     10.05555         0.001609      0.009974      0.016321
Ir      7.23144     12.97705      8.69457         0.017198      0.028409      0.009226
Ir      9.51193      7.00169      9.08223         0.008185      0.003193      0.033394
Ir      8.08092      8.73911     10.11039        -0.014729      0.006300     -0.010509
Ir     10.76739     12.08335      8.54740        -0.007958      0.011206     -0.010894
Ir      9.58527      7.40430     11.63825        -0.016468      0.054335      0.031649
Ir     13.70392      8.67379      8.79513        -0.002890      0.031693      0.012997
