152
# total energy = -1110.39820165 eVH     10.35389      5.87395      7.64558        -0.405445     -0.125064      1.195545
H     10.62451     15.10445      7.64558         0.315777      0.077706      0.906722
H     10.62451      5.87395     13.33282        -0.315059     -0.671561     -1.309182
H     10.35389     15.10445     13.33282        -0.578114      0.433058     -0.343278
H      7.64558     10.35389      5.87395         0.562703     -0.513814     -0.105680
H      7.64558     10.62451     15.10445         0.389897     -0.230744      0.041492
H     13.33282     10.62451      5.87395        -0.595393      0.653629     -0.056533
H     13.33282     10.35389     15.10445        -0.523664      0.372158      0.144604
H      5.87395      7.64558     10.35389         0.148752      0.562391      0.024530
H     15.10445      7.64558     10.62451         0.423348      1.038523      0.301654
H      5.87395     13.33282     10.62451        -0.218403     -0.509660      0.362014
H     15.10445     13.33282     10.35389         0.028778     -0.297323     -0.381234
H      5.87395     10.35389      7.64558        -0.114609     -0.434257      1.509680
H     15.10445     10.62451      7.64558         0.221772      0.532458      1.337418
H      5.87395     10.62451     13.33282        -0.224133     -0.371274     -1.212886
H     15.10445     10.35389     13.33282         0.616185      1.034900     -1.535184
H     10.35389      7.64558      5.87395        -0.604208      0.545521     -0.167162
H     10.62451      7.64558     15.10445        -0.128342      0.428789      0.144723
H     10.62451     13.33282      5.87395         0.863421     -1.308437     -0.309397
H     10.35389     13.33282     15.10445         0.208815     -0.561791     -0.113095
H      7.64558      5.87395     10.35389         0.731018      0.156919     -0.185468
H      7.64558     15.10445     10.62451         1.983155      0.733033      0.233934
H     13.33282      5.87395     10.62451        -2.622062     -0.861604     -0.544866
H     13.33282     15.10445     10.35389        -0.873517     -0.058828     -0.253324
H     12.45634     12.45634     19.01126         0.271910      0.257682     -0.227801
H     19.01126     19.01126     19.01126        -0.266653     -0.254641     -0.239196
H     19.01126     12.45634     12.45634        -0.284580      0.282001      0.183821
H     12.45634     19.01126     12.45634         0.256862     -0.250546      0.235390
C     10.35284      5.61067      6.59456         0.080412     -0.462845     -1.185418
C     10.62556     15.36773      6.59456         0.201148      0.754003     -0.810428
C     10.62556      5.61067     14.38384         0.171585     -0.289239      1.779066
C     10.35284     15.36773     14.38384         0.080611      0.381279      1.782873
C      6.59456     10.35284      5.61067        -1.140654     -0.111257     -0.915890
C      6.59456     10.62556     15.36773        -0.699721     -0.090868      0.809556
C     14.38384     10.62556      5.61067         0.819090     -0.113975     -0.979474
C     14.38384     10.35284     15.36773         1.161897      0.167563      1.085452
C      5.61067      6.59456     10.35284        -0.669397     -0.912508     -0.192426
C     15.36773      6.59456     10.62556         2.032340     -0.352999     -0.187954
C      5.61067     14.38384     10.62556        -1.569489     -0.019851     -0.142186
C     15.36773     14.38384     10.35284         0.482988      0.097013     -0.004583
C      5.61067     10.35284      6.59456        -0.273621      0.225217     -1.359406
C     15.36773     10.62556      6.59456         0.304619     -0.282319     -0.966280
C      5.61067     10.62556     14.38384        -0.260837      0.456221      1.453374
C     15.36773     10.35284     14.38384        -0.030832     -0.523335      1.941524
C     10.35284      6.59456      5.61067        -0.147731     -0.825411     -0.710558
C     10.62556      6.59456     15.36773        -0.120346     -0.695123      1.035567
C     10.62556     14.38384      5.61067        -0.497526      1.977045     -0.739221
C     10.35284     14.38384     15.36773        -0.249439      1.326534      0.510142
C      6.59456      5.61067     10.35284        -1.004056     -0.407128      0.100881
C      6.59456     15.36773     10.62556        -1.238187      0.363244     -0.334084
C     14.38384      5.61067     10.62556         1.257383     -1.309941      0.246173
C     14.38384     15.36773     10.35284         0.456090      0.307259      0.091571
C     10.40319      3.19606      7.29314         0.001225      0.305271     -0.118257
C     10.35913      4.25547      6.23373         0.142565     -0.603291      0.019055
C      0.08601      7.29314      7.29314        -0.053908     -0.269633     -0.416987
C      0.13007      6.23373      6.23373        -0.125907      0.650157      0.010348
C      0.08601      3.19606      3.19606        -0.105246      1.679142      0.162965
C      0.13007      4.25547      4.25547        -0.105209     -0.387030     -1.193687
C     10.40319      7.29314      3.19606         0.016263     -0.463655      0.120881
C     10.35913      6.23373      4.25547         0.265278      0.090074     -0.550422
C      7.29314     10.40319      3.19606        -1.710652      0.013216      0.325497
C      6.23373     10.35913      4.25547         0.682168      0.082624     -0.629842
C      7.29314      0.08601      7.29314        -0.413273     -0.017361     -0.323128
C      6.23373      0.13007      6.23373         0.750020     -0.060008      0.235717
C      3.19606      0.08601      3.19606         0.664451     -0.019830      0.177663
C      4.25547      0.13007      4.25547        -0.346830     -0.090121     -0.593834
C      3.19606     10.40319      7.29314         0.338897      0.025960     -0.321990
C      4.25547     10.35913      6.23373        -0.748077      0.086780      0.357736
C      3.19606      7.29314     10.40319         0.281222     -0.198949     -0.006667
C      4.25547      6.23373     10.35913         0.041998      0.626059      0.091695
C      7.29314      7.29314      0.08601        -0.710464     -0.605968     -0.033345
C      6.23373      6.23373      0.13007         0.904580      1.122235     -0.063604
C      3.19606      3.19606      0.08601         0.828183      0.515304     -0.004873
C      4.25547      4.25547      0.13007        -0.315026     -1.778291     -0.133669
C      7.29314      3.19606     10.40319        -0.322457      0.269399     -0.005054
C      6.23373      4.25547     10.35913         0.514696     -0.017840      0.232989
O     10.43466      3.58206      8.50569        -0.048573      0.189248      0.261307
O     10.54374     17.39634      8.50569         0.042229     -0.238085      0.488331
O     10.54374      3.58206     12.47271         0.084530     -0.082147     -0.016759
O     10.43466     17.39634     12.47271        -0.023435     -0.140916     -0.265053
O      8.50569     10.43466      3.58206         0.995718      0.193209      0.370995
O      8.50569     10.54374     17.39634         0.583799      0.083949     -0.230073
O     12.47271     10.54374      3.58206        -0.408937     -0.042109      0.178730
O     12.47271     10.43466     17.39634        -0.500482     -0.066177     -0.190678
O      3.58206      8.50569     10.43466         0.185045      0.420031     -0.028331
O     17.39634      8.50569     10.54374        -0.229705      0.709016      0.047281
O      3.58206     12.47271     10.54374         0.162090     -0.683349      0.026984
O     17.39634     12.47271     10.43466        -0.187513     -0.473249     -0.009607
O      3.58206     10.43466      8.50569         0.235650     -0.063106      0.408819
O     17.39634     10.54374      8.50569        -0.172471      0.037437      0.413953
O      3.58206     10.54374     12.47271         0.148885      0.021521     -0.303804
O     17.39634     10.43466     12.47271         0.086663     -0.053004     -0.064915
O     10.43466      8.50569      3.58206         0.008284      0.274786      0.185018
O     10.54374      8.50569     17.39634         0.069015      0.420363     -0.171068
O     10.54374     12.47271      3.58206        -0.221611     -0.977817      0.321341
O     10.43466     12.47271     17.39634        -0.081081     -0.453682     -0.245485
O      8.50569      3.58206     10.43466         0.486244      0.197864     -0.008863
O      8.50569     17.39634     10.54374         0.662843     -0.206054      0.023183
O     12.47271      3.58206     10.54374        -0.748907      0.283292      0.040019
O     12.47271     17.39634     10.43466        -0.430029     -0.207167     -0.043200
O     11.90042     11.90042     19.56718        -0.347395     -0.306728      0.262128
O     19.56718     19.56718     19.56718         0.323326      0.311340      0.285189
O     19.56718     11.90042     11.90042         0.273259     -0.272098     -0.137134
O     11.90042     19.56718     11.90042        -0.305000      0.281468     -0.232712
O      9.45224      1.03696      9.45224        -0.062672      0.073995     -0.043641
O      1.03696      9.45224      9.45224         0.035738     -0.076644     -0.068937
O      1.03696      1.03696      1.03696         0.066574      0.155166      0.091658
O      9.45224      9.45224      1.03696        -0.148347     -0.102719      0.092314
Zr     10.48920      2.52580     10.48920         0.167565     -0.177560     -0.170834
Zr     10.48920     18.45260     10.48920        -0.101436      0.191078     -0.053601
Zr     10.48920     10.48920      2.52580         0.350817     -0.311329     -0.210602
Zr     10.48920     10.48920     18.45260         0.019811     -0.090140      0.196693
Zr      2.52580     10.48920     10.48920        -0.074315      0.182260     -0.052794
Zr     18.45260     10.48920     10.48920         0.151019     -0.135261     -0.255378
Ir     12.03586     12.48107     10.45220        -0.001244     -0.001169     -0.000521
Ir     11.23217      7.41154     10.21067         0.000828      0.000788     -0.007306
Ir      8.86191      7.33875     11.49758         0.004701     -0.001933     -0.009363
Ir      7.44712     11.64706      7.65751        -0.006603      0.000862     -0.001092
Ir     11.59746     12.06199      7.10538        -0.001564     -0.008278     -0.007318
Ir     13.79525      8.99327      7.50174         0.003745      0.000796     -0.014391
Ir     12.46577     13.94840      8.39974         0.001168      0.004693     -0.003847
Ir      9.74819     11.25026      5.52583         0.000969     -0.000366     -0.006954
Ir      9.07244     13.42707      7.07820        -0.002860     -0.008759      0.001809
Ir      9.25614      9.68184      7.48477        -0.001507      0.001982     -0.000325
Ir     13.28274      7.02504     11.96980        -0.006718     -0.001820      0.008131
Ir     13.66570      7.04474      9.09999         0.014764     -0.006781     -0.001559
Ir     11.04227      7.58489     12.77063        -0.001330      0.000672     -0.020214
Ir     13.59034     11.56302      8.74673        -0.000726     -0.002974     -0.001425
Ir     11.49870      9.60475      6.20728         0.002064     -0.007345     -0.008740
Ir      7.16650      9.13513      8.91068         0.001847     -0.003470     -0.005078
Ir     14.06349     11.44030     11.63770         0.002060     -0.008834     -0.003990
Ir     11.66410      9.80596      8.84005        -0.001436     -0.007273     -0.005089
Ir      9.44946      9.49206     10.21379         0.012509     -0.005806     -0.006042
Ir     13.88769      9.41546     10.15157         0.000414      0.003009     -0.003844
Ir     13.85693      9.15771     12.85905         0.006477     -0.005479     -0.010260
Ir     11.71208      9.75345     11.52027         0.007073     -0.008603     -0.006144
Ir      9.92369     11.71980      8.95683         0.003290     -0.005717     -0.003646
Ir      9.13233      7.43814      8.73429         0.007256      0.000954     -0.012393
Ir     11.68215      7.49167      7.68912         0.008375     -0.014899     -0.018125
Ir      9.25544      9.45504     12.99410         0.002491     -0.006746     -0.004679
Ir      7.50341     13.89665      8.99468        -0.001819     -0.000587     -0.000598
Ir     10.85588     14.08912     11.95507        -0.003431     -0.002201      0.000375
Ir     10.11182     14.13601      9.51151        -0.001675      0.000653     -0.001196
Ir      9.79098     11.66856     11.72111        -0.003312     -0.003098     -0.001960
Ir      7.59463     11.55427     10.20247         0.001655      0.001511     -0.003281
Ir      8.34157     13.72460     11.57951         0.000157     -0.003281     -0.000438
Ir      7.52705     11.52736     12.81776         0.003513     -0.005283     -0.003482
Ir      9.78957     11.56857     14.34118         0.006412     -0.009646      0.001398
Ir     13.46018     13.88007     12.18348        -0.000368      0.000466     -0.000658
Ir     11.99179     12.03261     13.07181         0.001583     -0.010007      0.001991
Ir     11.59618      9.75702     14.15630         0.005396     -0.010090     -0.012610
Ir      7.16180      9.33428     11.46621        -0.000376     -0.004671     -0.002311
