35
# total energy = -301.58103245 eVC      6.68582     10.29460      7.65173         0.001987     -0.010472      0.002312
C      8.07240      9.94145      7.58023        -0.002814     -0.002625     -0.003688
C      9.41822      5.70879      7.64999         0.004676     -0.027093      0.003425
C      1.46328      5.34842      7.66845        -0.011764      0.042970      0.005492
C      4.19603      0.76299      7.63457         0.011733      0.002441      0.001168
C      2.80966      1.11598      7.56547        -0.006127      0.008364     -0.001648
C      0.70598      4.16601      7.64511         0.011740      0.005638      0.002283
C      1.09375      2.78939      7.57195         0.006571     -0.013128     -0.002321
C      5.35958      1.54954      7.64638         0.027834     -0.007307      0.002801
C      5.52215      9.50820      7.67102        -0.024192      0.013900      0.010583
C     10.17586      6.89124      7.64285        -0.006460     -0.005902      0.001226
C      9.78886      8.26826      7.57499        -0.029773      0.019627     -0.002237
C      0.77530      6.57819      7.64834         0.042603     -0.025358      0.000855
C      1.25826      7.92658      7.58018         0.019946     -0.026547     -0.002629
C     10.10642      4.47933      7.64269        -0.040076      0.019714     -0.000601
C      9.62426      3.13125      7.56898        -0.036843      0.012485     -0.004662
C      4.27601     10.16546      7.65143         0.002980     -0.026877      0.001214
C      2.93949      9.64966      7.58125         0.040061     -0.024800     -0.002463
C      6.60589      0.89203      7.63806        -0.013296      0.033798     -0.001592
C      7.94213      1.40753      7.56697        -0.021053      0.031911     -0.007024
N      8.81022      0.31624      7.47865         0.010530      0.023476     -0.003042
N      0.14609      8.76725      7.48727         0.026251      0.012987     -0.002856
N      8.53765      8.70213      7.59968        -0.002297     -0.032194      0.005797
N      2.34453      2.35543      7.59245         0.022563      0.017391      0.005496
N      2.07196     10.74082      7.48885        -0.020245     -0.024937     -0.000528
N     10.73708      2.29068      7.48237        -0.022122     -0.013516     -0.003464
N      2.57086      8.32744      7.60016         0.004557      0.004395     -0.000529
N      8.31116      2.72992      7.58335         0.004612     -0.001590     -0.005280
O      5.32904      2.87882      7.62419         0.002561     -0.014786     -0.010872
O      5.55280      8.17889      7.67795        -0.002139      0.010711      0.005168
O      8.08871      5.70694      7.62241         0.015779     -0.004637     -0.005890
O      2.79296      5.35082      7.67862        -0.016579     -0.001563      0.005236
Zr      6.53762      4.45996      7.59056         0.010896     -0.011573     -0.020865
Zr      4.34442      6.59729      7.68369        -0.008972      0.011713      0.016018
Zr      0.02673     10.81023      6.85169        -0.003128      0.003387      0.013117
