26
# total energy = -169.64870237 eVH      0.37169      6.90913      7.50000         0.013965      0.010371     -0.000000
H      2.82131      2.06365      7.50000        -0.008299      0.002360      0.000000
H      6.19153      6.71710      7.50000        -0.001686     -0.005791     -0.000000
H      8.94230     -1.55428      7.50000        -0.013965     -0.010371     -0.000000
H      6.49267      3.29120      7.50000         0.008299     -0.002360     -0.000000
H      3.12245     -1.36225      7.50000         0.001686      0.005791     -0.000000
C      8.50992      4.15761      7.50000        -0.005845     -0.003867      0.000000
C      1.45314     -0.08401      7.50000         0.015121      0.001713     -0.000000
C      8.70630     -3.71400      7.50000         0.004707      0.000156      0.000000
C      0.80406      1.19723      7.50000         0.005845      0.003867     -0.000000
C      7.86084      5.43886      7.50000        -0.015121     -0.001713      0.000000
C      0.60768      9.06885      7.50000        -0.004707     -0.000156      0.000000
C      8.20495     -2.36154      7.50000        -0.008633      0.011234     -0.000000
C      7.55087      2.98271      7.50000         0.025286     -0.039442      0.000000
C      2.85835     -0.31142      7.50000         0.001351      0.006437      0.000000
C      1.10903      7.71639      7.50000         0.008633     -0.011234     -0.000000
C      1.76312      2.37214      7.50000        -0.025286      0.039442     -0.000000
C      6.45563      5.66627      7.50000        -0.001351     -0.006437      0.000000
O      6.96048     -2.06947      7.50000         0.010102     -0.014766     -0.000000
O      7.81411      1.77964      7.50000        -0.007023      0.021816     -0.000000
O      3.86971      0.52123      7.50000         0.002070      0.000335     -0.000000
O      2.35350      7.42432      7.50000        -0.010102      0.014766      0.000000
O      1.49987      3.57521      7.50000         0.007023     -0.021816     -0.000000
O      5.44427      4.83361      7.50000        -0.002070     -0.000335      0.000000
Au      5.62612     -0.54743      7.50000        -0.000684     -0.002747      0.000000
Au      3.68786      5.90227      7.50000         0.000684      0.002747     -0.000000
