152
# total energy = -1061.44747354 eVH     10.35389      5.87395      7.64558        -0.206489      0.127337      1.033258
H     10.62451     15.10445      7.64558         0.444576     -0.116669      0.781122
H     10.62451      5.87395     13.33282        -0.091338      0.099395     -0.454601
H     10.35389     15.10445     13.33282         0.090274     -0.188930     -0.402189
H      7.64558     10.35389      5.87395         0.883906      0.199426      0.221950
H      7.64558     10.62451     15.10445         0.210890     -0.022729     -0.072153
H     13.33282     10.62451      5.87395        -0.598083     -0.051430      0.166676
H     13.33282     10.35389     15.10445        -0.323165     -0.056310     -0.075995
H      5.87395      7.64558     10.35389         0.127456      0.361449     -0.077952
H     15.10445      7.64558     10.62451        -0.137551      0.444763      0.179428
H      5.87395     13.33282     10.62451         0.106543     -0.636924      0.115462
H     15.10445     13.33282     10.35389        -0.229275     -0.437037      0.091965
H      5.87395     10.35389      7.64558         0.157615      0.279666      0.385333
H     15.10445     10.62451      7.64558        -0.138408     -0.366808      0.740068
H      5.87395     10.62451     13.33282         0.036645      0.153152     -0.704816
H     15.10445     10.35389     13.33282         0.077430     -0.248588     -0.735906
H     10.35389      7.64558      5.87395        -0.158554      0.446397      0.215599
H     10.62451      7.64558     15.10445         0.370434      0.613652     -0.119681
H     10.62451     13.33282      5.87395         0.084762     -0.557292      0.102503
H     10.35389     13.33282     15.10445         0.259923     -0.716830     -0.088093
H      7.64558      5.87395     10.35389         0.484597      0.145020     -0.153424
H      7.64558     15.10445     10.62451         0.397487     -0.146926      0.433464
H     13.33282      5.87395     10.62451        -0.389061      0.160300     -0.075529
H     13.33282     15.10445     10.35389        -0.580728     -0.293758      0.118432
H     12.45634     12.45634     19.01126         0.230769      0.265579     -0.248919
H     19.01126     19.01126     19.01126        -0.261523     -0.259281     -0.230403
H     19.01126     12.45634     12.45634        -0.234161      0.276033      0.235516
H     12.45634     19.01126     12.45634         0.276459     -0.210693      0.255967
C     10.35284      5.61067      6.59456         0.277992     -0.306259     -0.787997
C     10.62556     15.36773      6.59456        -0.188580      0.638348     -0.293133
C     10.62556      5.61067     14.38384         0.254026     -0.237376      0.487340
C     10.35284     15.36773     14.38384        -0.112181      0.274616      0.273583
C      6.59456     10.35284      5.61067        -0.833533     -0.098485     -0.240380
C      6.59456     10.62556     15.36773        -0.512736      0.045994      0.343739
C     14.38384     10.62556      5.61067         0.789930     -0.032820     -0.634628
C     14.38384     10.35284     15.36773         0.266065     -0.073254      0.349757
C      5.61067      6.59456     10.35284        -0.403811     -0.355930      0.079528
C     15.36773      6.59456     10.62556         0.313855     -0.480390     -0.068613
C      5.61067     14.38384     10.62556        -0.150725      0.498609     -0.402786
C     15.36773     14.38384     10.35284         0.413496      0.836380     -0.096768
C      5.61067     10.35284      6.59456        -0.315533     -0.172563     -0.109163
C     15.36773     10.62556      6.59456         0.212384      0.283768     -0.579958
C      5.61067     10.62556     14.38384        -0.340336     -0.041710      1.208151
C     15.36773     10.35284     14.38384         0.290156     -0.062822      0.993675
C     10.35284      6.59456      5.61067         0.080702     -0.244712     -0.508997
C     10.62556      6.59456     15.36773         0.012962     -0.783662      0.119909
C     10.62556     14.38384      5.61067        -0.384265      0.179910     -0.924119
C     10.35284     14.38384     15.36773        -0.259913      0.838032      0.269742
C      6.59456      5.61067     10.35284        -0.352192     -0.290061      0.256791
C      6.59456     15.36773     10.62556        -0.271410      0.519431     -0.059466
C     14.38384      5.61067     10.62556         0.474005     -0.374243      0.059626
C     14.38384     15.36773     10.35284         0.973994      0.269574     -0.064513
C     10.40319      3.19606      7.29314         0.008447      0.549240     -0.317244
C     10.35913      4.25547      6.23373        -0.013097     -0.530201      0.412332
C      0.08601      7.29314      7.29314        -0.014718     -0.844290     -0.564070
C      0.13007      6.23373      6.23373        -0.190018      0.877874      0.151160
C      0.08601      3.19606      3.19606        -0.010106      0.413427      0.387356
C      0.13007      4.25547      4.25547         0.066202     -0.228466     -0.570914
C     10.40319      7.29314      3.19606        -0.046970     -1.036658      0.779569
C     10.35913      6.23373      4.25547         0.017114      0.339612     -0.230071
C      7.29314     10.40319      3.19606        -1.318486     -0.084907      0.323573
C      6.23373     10.35913      4.25547         0.264604      0.018856     -0.700451
C      7.29314      0.08601      7.29314        -0.827709     -0.002178     -0.410388
C      6.23373      0.13007      6.23373         0.328065      0.053365      0.126627
C      3.19606      0.08601      3.19606         0.323305      0.000061      0.429781
C      4.25547      0.13007      4.25547        -0.283796     -0.032965     -0.178045
C      3.19606     10.40319      7.29314         0.494339     -0.041073     -1.034183
C      4.25547     10.35913      6.23373        -0.321281     -0.075025      0.096698
C      3.19606      7.29314     10.40319         1.086243     -0.444055      0.011270
C      4.25547      6.23373     10.35913        -0.194657      0.165921     -0.000226
C      7.29314      7.29314      0.08601        -0.502893     -0.281960     -0.007210
C      6.23373      6.23373      0.13007         0.171921      0.173353     -0.154710
C      3.19606      3.19606      0.08601         0.356587      0.880119     -0.008670
C      4.25547      4.25547      0.13007        -0.579674     -0.184398      0.038969
C      7.29314      3.19606     10.40319        -0.197316      0.496696      0.026420
C      6.23373      4.25547     10.35913        -0.010828     -0.368623      0.043504
O     10.43466      3.58206      8.50569        -0.023025      0.133445      0.390751
O     10.54374     17.39634      8.50569         0.041636      0.053203      0.365742
O     10.54374      3.58206     12.47271         0.041273      0.194292     -0.574460
O     10.43466     17.39634     12.47271         0.028881     -0.015410     -0.465631
O      8.50569     10.43466      3.58206         0.766361     -0.060068     -0.025666
O      8.50569     10.54374     17.39634         0.851940      0.022332     -0.161734
O     12.47271     10.54374      3.58206        -0.348578      0.036766      0.082998
O     12.47271     10.43466     17.39634        -0.377129     -0.036781      0.039952
O      3.58206      8.50569     10.43466        -0.104381      0.260089     -0.078692
O     17.39634      8.50569     10.54374        -0.106346      0.446845      0.043160
O      3.58206     12.47271     10.54374         0.150146     -0.821941     -0.022209
O     17.39634     12.47271     10.43466        -0.238831     -0.633816     -0.015645
O      3.58206     10.43466      8.50569         0.127598     -0.031965      0.794491
O     17.39634     10.54374      8.50569         0.000858      0.035629      0.340728
O      3.58206     10.54374     12.47271         0.067056      0.017790     -0.457629
O     17.39634     10.43466     12.47271         0.054356      0.012578     -0.239401
O     10.43466      8.50569      3.58206        -0.055402      0.562395     -0.069880
O     10.54374      8.50569     17.39634         0.029193      0.865705     -0.204456
O     10.54374     12.47271      3.58206         0.070150     -0.369702      0.075047
O     10.43466     12.47271     17.39634        -0.055125     -0.643158     -0.198513
O      8.50569      3.58206     10.43466         0.349962      0.082665     -0.052501
O      8.50569     17.39634     10.54374         0.560471     -0.166060     -0.016556
O     12.47271      3.58206     10.54374        -0.366386      0.050005      0.036161
O     12.47271     17.39634     10.43466        -0.835509     -0.144499      0.071732
O     11.90042     11.90042     19.56718        -0.243444     -0.283270      0.237468
O     19.56718     19.56718     19.56718         0.300529      0.293358      0.250250
O     19.56718     11.90042     11.90042         0.228957     -0.305521     -0.276110
O     11.90042     19.56718     11.90042        -0.274249      0.180051     -0.275971
O      9.45224      1.03696      9.45224        -0.107428      0.086491     -0.085897
O      1.03696      9.45224      9.45224         0.124935     -0.148249     -0.174452
O      1.03696      1.03696      1.03696         0.139548      0.208511     -0.002717
O      9.45224      9.45224      1.03696        -0.212417     -0.170778      0.030478
Zr     10.48920      2.52580     10.48920        -0.005081     -0.232521      0.148588
Zr     10.48920     18.45260     10.48920        -0.304371      0.307430     -0.152394
Zr     10.48920     10.48920      2.52580         0.362473      0.393249     -0.232199
Zr     10.48920     10.48920     18.45260        -0.001546      0.020433      0.469782
Zr      2.52580     10.48920     10.48920        -0.557758      0.020262      0.343111
Zr     18.45260     10.48920     10.48920         0.274248     -0.144250      0.002680
Pd      9.21765     14.65580      9.22008        -0.007709      0.012579     -0.003468
Pd      8.47614     13.21392     13.81899        -0.004631     -0.007608      0.006366
Pd     12.14947     14.12340      8.65352         0.002346      0.005694      0.020148
Pd     12.24993     12.75593     10.89755        -0.004488      0.019692     -0.020091
Pd     11.77516      7.08074     11.88377         0.005930     -0.002687     -0.008893
Pd     11.17709     15.31550     10.93083         0.005282     -0.006133      0.015237
Pd      9.61533     13.16745     11.40476        -0.012560     -0.014381      0.006938
Pd     14.02692     12.40060      7.96076        -0.002946     -0.013653      0.011049
Pd     11.57441     11.76896      6.74579         0.000714      0.023117     -0.001572
Pd      7.42539      8.52877      7.18925         0.000985      0.012437      0.001625
Pd      8.61561     12.09675      6.91084        -0.026022      0.011497      0.005766
Pd      9.71166      9.90606      7.99773        -0.003881     -0.003396     -0.007627
Pd      8.47700     14.74715      6.57996        -0.001242      0.002588     -0.002572
Pd     12.01925      9.06181      6.83643        -0.003446     -0.001712     -0.012586
Pd      9.90441     10.04711      5.39979         0.002654      0.009756      0.011555
Pd      6.90096      9.22479     12.16820         0.001030     -0.007133     -0.000294
Pd     12.39404      6.53162      7.66328         0.008557      0.007946      0.003568
Pd      5.56885     10.69365     10.10496         0.004283     -0.002070      0.008651
Pd      7.56097      6.66949     12.69913         0.017548      0.005961     -0.007710
Ir     11.28272      9.53753     12.83559         0.013007      0.017692      0.002041
Ir     13.07717      9.23553     11.07109        -0.033917     -0.008958      0.032776
Ir      9.15253      8.42258     13.75392        -0.005837     -0.005626     -0.015887
Ir     10.27816     10.37195     15.06479        -0.001946     -0.004571     -0.002425
Ir      7.10639     11.91297     11.84236         0.021875     -0.011319      0.026159
Ir     14.40305     11.19895     10.31399         0.020879      0.002425     -0.011733
Ir     12.27225     10.62667      9.05023         0.004531      0.004263     -0.002061
Ir      8.92903     10.79159     12.89039        -0.034777      0.016711     -0.016660
Ir     10.02157     10.29043     10.61150        -0.012532      0.006394      0.004598
Ir     13.30288     11.19699     12.60565        -0.011211     -0.028674      0.018902
Ir     11.09801     12.04177     13.32383        -0.000712     -0.014035      0.001723
Ir      7.95655     11.73431      9.50961        -0.024324      0.040081     -0.009616
Ir     11.27017      8.16223      9.43959        -0.031063     -0.021231     -0.006023
Ir      6.98216     13.60101      8.37711         0.005411     -0.015740      0.022882
Ir      9.05138      7.28924      8.79234         0.006631      0.013304      0.005842
Ir      7.73307      9.21819      9.70340        -0.001132     -0.022228      0.008050
Ir     10.36104     12.34178      8.97962        -0.006897      0.002712      0.008844
Ir      9.31717      7.89960     11.24714        -0.012963     -0.004279      0.022822
Ir     13.73426      8.47162      8.78466         0.037948     -0.001016     -0.016216
