15
# total energy = -78.70912954 eVC      9.63870      4.79680      7.50000         0.008513     -0.001679     -0.000000
C      0.64700      1.14165      7.50000        -0.008513      0.001679     -0.000000
C      1.31219      0.01051      7.50000        -0.002802      0.008212      0.000000
C      8.97350      5.92794      7.50000         0.002802     -0.008212      0.000000
C      9.62050     -4.80731      7.50000        -0.005711     -0.006533      0.000000
C      0.66520     10.74576      7.50000         0.005711      0.006533     -0.000000
O      6.67612      3.87566      7.50000        -0.003102      0.005234     -0.000000
O      3.60958      2.06279      7.50000         0.003102     -0.005234     -0.000000
O      3.59122      9.78231      7.50000        -0.002981     -0.005303     -0.000000
O      6.69448     -3.84386      7.50000         0.002981      0.005303     -0.000000
O      0.01836      4.15738      7.50000         0.006084      0.000070     -0.000000
O     10.26734      1.78107      7.50000        -0.006084     -0.000070     -0.000000
Pd      5.14285     -2.96922      7.50000        -0.000000      0.000000     -0.000000
Pd     -0.00000      5.93845      7.50000        -0.000000      0.000000     -0.000000
Pd      5.14285      2.96922      7.50000        -0.000000      0.000000     -0.000000
