32
# total energy = -216.20145770 eVH      4.24020     -1.04863     10.00000        -0.003906     -0.000669      0.000000
H      6.78361      7.41323     10.00000         0.003906      0.000669      0.000000
H      9.81185     -2.16816     10.00000         0.002713     -0.003328     -0.000000
H      1.21196      8.53276     10.00000        -0.002713      0.003328      0.000000
H      7.99557      3.21680     10.00000         0.001421      0.004075     -0.000000
H      3.02824      3.14780     10.00000        -0.001421     -0.004075      0.000000
H      1.21196      4.19644     10.00000        -0.002533     -0.003048     -0.000000
H      9.81185      2.16816     10.00000         0.002533      0.003048      0.000000
H      3.02824      9.58140     10.00000        -0.001526      0.004013      0.000000
H      7.99557     -3.21680     10.00000         0.001526     -0.004013      0.000000
H      6.78361      5.31597     10.00000         0.004239     -0.000807      0.000000
H      4.24020      1.04863     10.00000        -0.004239      0.000807      0.000000
C      4.82248     -1.97697     10.00000         0.000057      0.019917     -0.000000
C      6.20133      8.34157     10.00000        -0.000057     -0.019917     -0.000000
C     10.32468     -1.19973     10.00000        -0.015421     -0.012949      0.000000
C      0.69913      7.56433     10.00000         0.015421      0.012949      0.000000
C      6.90046      3.17670     10.00000         0.017630     -0.010194     -0.000000
C      4.12335      3.18790     10.00000        -0.017630      0.010194      0.000000
C      0.69913      5.16487     10.00000         0.017277     -0.009909      0.000000
C     10.32468      1.19973     10.00000        -0.017277      0.009909     -0.000000
C      4.12335      9.54130     10.00000        -0.018925     -0.006880      0.000000
C      6.90046     -3.17670     10.00000         0.018925      0.006880     -0.000000
C      6.20133      4.38763     10.00000        -0.000014      0.020365     -0.000000
C      4.82248      1.97697     10.00000         0.000014     -0.020365     -0.000000
C      6.23363     -1.93236     10.00000        -0.109332     -0.182341     -0.000000
C      4.79018      8.29696     10.00000         0.109332      0.182341     -0.000000
C      9.58046     -0.00006     10.00000         0.212578      0.003514      0.000000
C      1.44335      6.36466     10.00000        -0.212578     -0.003514      0.000000
C      6.23363      1.93223     10.00000        -0.108084      0.187207      0.000000
C      4.79018      4.43237     10.00000         0.108084     -0.187207      0.000000
Zr      3.67457      6.36466     10.00000        -0.000017      0.000029      0.000000
Zr      7.34924     -0.00006     10.00000         0.000017     -0.000029      0.000000
