152
# total energy = -1061.34833934 eVH     10.35389      5.87395      7.64558        -0.164400      0.139589      1.002372
H     10.62451     15.10445      7.64558         0.223579     -0.072688      0.838275
H     10.62451      5.87395     13.33282        -0.156346      0.085211     -0.517774
H     10.35389     15.10445     13.33282         0.060620     -0.236039     -0.439614
H      7.64558     10.35389      5.87395         0.836236      0.093465      0.206414
H      7.64558     10.62451     15.10445         0.187885     -0.000415     -0.065915
H     13.33282     10.62451      5.87395        -0.640247     -0.031713      0.174000
H     13.33282     10.35389     15.10445        -0.336942     -0.090968     -0.048923
H      5.87395      7.64558     10.35389         0.135513      0.363574     -0.033846
H     15.10445      7.64558     10.62451        -0.131580      0.615920      0.270751
H      5.87395     13.33282     10.62451         0.133334     -0.556758      0.002767
H     15.10445     13.33282     10.35389        -0.238758     -0.459694      0.114967
H      5.87395     10.35389      7.64558         0.205815      0.193926      0.380351
H     15.10445     10.62451      7.64558        -0.176966     -0.147942      0.459688
H      5.87395     10.62451     13.33282         0.034898      0.132770     -0.728885
H     15.10445     10.35389     13.33282         0.099069     -0.302602     -0.751196
H     10.35389      7.64558      5.87395        -0.088781      0.438095      0.257043
H     10.62451      7.64558     15.10445         0.410198      0.708340     -0.104646
H     10.62451     13.33282      5.87395         0.250114     -0.586668      0.117898
H     10.35389     13.33282     15.10445         0.163334     -0.651525     -0.078972
H      7.64558      5.87395     10.35389         0.431915      0.154824     -0.050269
H      7.64558     15.10445     10.62451         0.452390     -0.168560      0.333552
H     13.33282      5.87395     10.62451        -0.358794      0.145997     -0.042517
H     13.33282     15.10445     10.35389        -0.547500     -0.243856      0.160999
H     12.45634     12.45634     19.01126         0.240346      0.264402     -0.240182
H     19.01126     19.01126     19.01126        -0.255500     -0.265095     -0.228691
H     19.01126     12.45634     12.45634        -0.231804      0.267778      0.242715
H     12.45634     19.01126     12.45634         0.288047     -0.211326      0.245428
C     10.35284      5.61067      6.59456         0.318606     -0.298721     -0.918349
C     10.62556     15.36773      6.59456        -0.148591      0.689264     -0.382896
C     10.62556      5.61067     14.38384         0.269555     -0.342798      0.526971
C     10.35284     15.36773     14.38384        -0.128232      0.275749      0.408706
C      6.59456     10.35284      5.61067        -0.779330     -0.152430     -0.215457
C      6.59456     10.62556     15.36773        -0.551482      0.064199      0.346281
C     14.38384     10.62556      5.61067         0.967816     -0.002352     -0.525639
C     14.38384     10.35284     15.36773         0.280612     -0.089770      0.378759
C      5.61067      6.59456     10.35284        -0.375789     -0.476396      0.035054
C     15.36773      6.59456     10.62556         0.260936     -0.708597     -0.159266
C      5.61067     14.38384     10.62556        -0.187685      0.608018     -0.238892
C     15.36773     14.38384     10.35284         0.377702      0.833812     -0.126769
C      5.61067     10.35284      6.59456        -0.252010     -0.130204     -0.223217
C     15.36773     10.62556      6.59456         0.211525      0.146542     -0.393587
C      5.61067     10.62556     14.38384        -0.367109     -0.021073      1.233002
C     15.36773     10.35284     14.38384         0.261965     -0.021920      1.009150
C     10.35284      6.59456      5.61067         0.035786     -0.328461     -0.453773
C     10.62556      6.59456     15.36773        -0.041478     -0.874033      0.274857
C     10.62556     14.38384      5.61067        -0.389339     -0.004710     -0.800341
C     10.35284     14.38384     15.36773        -0.228092      0.900013      0.242039
C      6.59456      5.61067     10.35284        -0.415073     -0.296563      0.166294
C      6.59456     15.36773     10.62556        -0.531148      0.525305      0.030383
C     14.38384      5.61067     10.62556         0.400276     -0.313608      0.074072
C     14.38384     15.36773     10.35284         0.821669      0.293882     -0.066650
C     10.40319      3.19606      7.29314        -0.001635      0.639995     -0.327739
C     10.35913      4.25547      6.23373         0.003021     -0.471630      0.407881
C      0.08601      7.29314      7.29314        -0.025180     -0.799740     -0.465069
C      0.13007      6.23373      6.23373        -0.151280      0.856233      0.125616
C      0.08601      3.19606      3.19606        -0.012665      0.372252      0.382527
C      0.13007      4.25547      4.25547         0.071512     -0.162478     -0.649470
C     10.40319      7.29314      3.19606        -0.046613     -1.095954      0.893497
C     10.35913      6.23373      4.25547         0.014840      0.334472     -0.175009
C      7.29314     10.40319      3.19606        -1.049452     -0.068567      0.362264
C      6.23373     10.35913      4.25547         0.287903      0.032811     -0.614337
C      7.29314      0.08601      7.29314        -0.956530     -0.002232     -0.397556
C      6.23373      0.13007      6.23373         0.189624      0.015498      0.112139
C      3.19606      0.08601      3.19606         0.335452     -0.004198      0.368212
C      4.25547      0.13007      4.25547        -0.273222     -0.045806     -0.160963
C      3.19606     10.40319      7.29314         0.487254     -0.047523     -1.087968
C      4.25547     10.35913      6.23373        -0.304331     -0.046955      0.137535
C      3.19606      7.29314     10.40319         0.824104     -0.508355      0.012758
C      4.25547      6.23373     10.35913        -0.123667      0.162201     -0.001365
C      7.29314      7.29314      0.08601        -0.406950     -0.269497     -0.005922
C      6.23373      6.23373      0.13007         0.248344      0.067689     -0.141731
C      3.19606      3.19606      0.08601         0.332534      0.683787     -0.008742
C      4.25547      4.25547      0.13007        -0.356670     -0.232134      0.054762
C      7.29314      3.19606     10.40319        -0.216479      0.558001      0.020282
C      6.23373      4.25547     10.35913         0.062344     -0.252575      0.004886
O     10.43466      3.58206      8.50569        -0.017692      0.112601      0.338912
O     10.54374     17.39634      8.50569         0.063715      0.028334      0.325716
O     10.54374      3.58206     12.47271         0.042949      0.198181     -0.573455
O     10.43466     17.39634     12.47271         0.033188     -0.007078     -0.472159
O      8.50569     10.43466      3.58206         0.721132     -0.074783      0.075155
O      8.50569     10.54374     17.39634         0.921332      0.034086     -0.162475
O     12.47271     10.54374      3.58206        -0.353013      0.045640      0.065629
O     12.47271     10.43466     17.39634        -0.340964     -0.021998      0.065984
O      3.58206      8.50569     10.43466        -0.022398      0.403634     -0.083625
O     17.39634      8.50569     10.54374        -0.119988      0.427827      0.032314
O      3.58206     12.47271     10.54374         0.128658     -0.697806     -0.010388
O     17.39634     12.47271     10.43466        -0.246406     -0.664624     -0.011955
O      3.58206     10.43466      8.50569         0.138303     -0.043909      0.836687
O     17.39634     10.54374      8.50569         0.041705      0.044214      0.280756
O      3.58206     10.54374     12.47271         0.070019      0.019482     -0.442662
O     17.39634     10.43466     12.47271        -0.019643      0.015529     -0.318847
O     10.43466      8.50569      3.58206        -0.069426      0.571027     -0.088669
O     10.54374      8.50569     17.39634         0.024197      0.834485     -0.176229
O     10.54374     12.47271      3.58206         0.056983     -0.371926      0.089549
O     10.43466     12.47271     17.39634        -0.062894     -0.680540     -0.216423
O      8.50569      3.58206     10.43466         0.348021      0.066012     -0.053290
O      8.50569     17.39634     10.54374         0.504216     -0.131846      0.017976
O     12.47271      3.58206     10.54374        -0.403345      0.097425      0.023018
O     12.47271     17.39634     10.43466        -0.668299     -0.093029      0.062351
O     11.90042     11.90042     19.56718        -0.249022     -0.278091      0.225025
O     19.56718     19.56718     19.56718         0.288551      0.302761      0.249891
O     19.56718     11.90042     11.90042         0.236658     -0.299128     -0.289656
O     11.90042     19.56718     11.90042        -0.286986      0.178834     -0.254663
O      9.45224      1.03696      9.45224        -0.120091      0.117132     -0.082198
O      1.03696      9.45224      9.45224         0.150649     -0.132250     -0.153754
O      1.03696      1.03696      1.03696         0.139305      0.193302     -0.012117
O      9.45224      9.45224      1.03696        -0.203550     -0.169879      0.049429
Zr     10.48920      2.52580     10.48920         0.007985     -0.244546      0.195280
Zr     10.48920     18.45260     10.48920        -0.233453      0.250536     -0.273469
Zr     10.48920     10.48920      2.52580         0.262052      0.464683     -0.210141
Zr     10.48920     10.48920     18.45260         0.037057     -0.073362      0.486684
Zr      2.52580     10.48920     10.48920        -0.538590      0.062453      0.367699
Zr     18.45260     10.48920     10.48920         0.261167     -0.153837      0.030083
Pd      9.08671     14.46781      9.20519        -0.002902      0.094897      0.009569
Pd      8.35089     13.25016     13.73836        -0.006656     -0.013172      0.033741
Pd     11.95956     14.25974      8.79519        -0.003995     -0.029108     -0.008968
Pd     12.27769     12.75829     10.91297         0.074519      0.011068      0.040733
Pd     11.86754      7.10674     12.09358        -0.016890     -0.014111     -0.004415
Pd     10.96891     15.28639     11.06868         0.065490      0.031001     -0.037396
Pd      9.61544     13.03559     11.40784        -0.066249      0.067177     -0.017829
Pd     13.93497     12.56356      8.25880         0.045775     -0.051507     -0.082922
Pd     11.69929     11.72615      6.80201         0.006061     -0.011311      0.019140
Pd      7.53742      8.49245      7.28603        -0.018123     -0.012614     -0.010791
Pd      8.77197     11.95536      6.87452        -0.037861      0.029575      0.034777
Pd      9.82856      9.80193      8.06060         0.002513      0.046367     -0.013357
Pd      8.49857     14.61176      6.55596        -0.017960     -0.025682     -0.030981
Pd     12.16715      9.01380      6.96396         0.009653     -0.001560     -0.080003
Pd     10.07826      9.95931      5.44170        -0.019807     -0.028395     -0.032782
Pd      6.92847      9.15333     12.24098        -0.006807      0.061000     -0.023267
Pd     12.40947      6.49348      7.84841        -0.035367      0.010692     -0.025612
Pd      5.63077     10.55810     10.02101        -0.049727      0.018760      0.021671
Pd      7.67285      6.65391     12.94225        -0.017801      0.000824     -0.063454
Ir     11.30654      9.58603     12.97796        -0.011722      0.013280     -0.080462
Ir     13.10057      9.25402     11.23968         0.065560      0.018228      0.070409
Ir      9.16877      8.49966     13.89515         0.024668     -0.048147      0.003950
Ir     10.24956     10.48509     15.15865        -0.021528     -0.036759      0.014716
Ir      7.07606     11.82434     11.79350         0.053162     -0.010503      0.044364
Ir     14.49790     11.12633     10.43882        -0.012173     -0.010019      0.030957
Ir     12.36232     10.58745      9.16047        -0.028061      0.018594     -0.027620
Ir      8.92078     10.81852     12.93598        -0.017317      0.000582      0.011138
Ir     10.05912     10.25117     10.70267        -0.038770      0.025568      0.007525
Ir     13.31921     11.28099     12.70769        -0.042118     -0.002632     -0.109147
Ir     11.09859     12.08206     13.39005         0.033728     -0.019933     -0.029654
Ir      8.01016     11.63932      9.49171        -0.002145     -0.009041      0.025462
Ir     11.35216      8.13636      9.62003        -0.015996     -0.037795     -0.047849
Ir      6.94705     13.33391      8.19126        -0.047362      0.075399      0.004528
Ir      9.16851      7.23585      8.92354        -0.006930     -0.063776     -0.007883
Ir      7.82664      9.13123      9.80188        -0.026301      0.050681     -0.027640
Ir     10.42376     12.25326      8.98487         0.010453     -0.023435      0.019671
Ir      9.38308      7.86369     11.40489         0.033802      0.023089     -0.048465
Ir     13.80770      8.43393      8.95567         0.054084     -0.045310     -0.056824
