152
# total energy = -1110.39098024 eVH     10.35389      5.87395      7.64558        -0.382044     -0.131703      1.135742
H     10.62451     15.10445      7.64558         0.331964      0.078147      0.923219
H     10.62451      5.87395     13.33282        -0.319713     -0.679132     -1.346621
H     10.35389     15.10445     13.33282        -0.589897      0.426324     -0.330751
H      7.64558     10.35389      5.87395         0.556298     -0.522975     -0.099677
H      7.64558     10.62451     15.10445         0.384261     -0.235336      0.043926
H     13.33282     10.62451      5.87395        -0.575344      0.644812     -0.046010
H     13.33282     10.35389     15.10445        -0.526158      0.391009      0.155609
H      5.87395      7.64558     10.35389         0.149400      0.553827      0.028757
H     15.10445      7.64558     10.62451         0.429528      1.014313      0.279883
H      5.87395     13.33282     10.62451        -0.221504     -0.500806      0.361896
H     15.10445     13.33282     10.35389         0.027726     -0.299827     -0.379781
H      5.87395     10.35389      7.64558        -0.100418     -0.405252      1.481090
H     15.10445     10.62451      7.64558         0.218448      0.508426      1.323065
H      5.87395     10.62451     13.33282        -0.214776     -0.369251     -1.202882
H     15.10445     10.35389     13.33282         0.609668      0.993064     -1.533272
H     10.35389      7.64558      5.87395        -0.579190      0.525970     -0.174506
H     10.62451      7.64558     15.10445        -0.135238      0.457310      0.161370
H     10.62451     13.33282      5.87395         0.871378     -1.336052     -0.314116
H     10.35389     13.33282     15.10445         0.229906     -0.562363     -0.104163
H      7.64558      5.87395     10.35389         0.718897      0.165364     -0.170634
H      7.64558     15.10445     10.62451         1.979784      0.754145      0.220054
H     13.33282      5.87395     10.62451        -2.662560     -0.915257     -0.506846
H     13.33282     15.10445     10.35389        -0.877734     -0.055493     -0.252338
H     12.45634     12.45634     19.01126         0.271982      0.257894     -0.227328
H     19.01126     19.01126     19.01126        -0.266783     -0.254835     -0.238660
H     19.01126     12.45634     12.45634        -0.283920      0.281639      0.185104
H     12.45634     19.01126     12.45634         0.256380     -0.250715      0.235798
C     10.35284      5.61067      6.59456         0.076286     -0.488543     -1.208220
C     10.62556     15.36773      6.59456         0.189283      0.754834     -0.812739
C     10.62556      5.61067     14.38384         0.182465     -0.297895      1.788043
C     10.35284     15.36773     14.38384         0.087487      0.384504      1.795492
C      6.59456     10.35284      5.61067        -1.137482     -0.110133     -0.891002
C      6.59456     10.62556     15.36773        -0.701952     -0.096094      0.790885
C     14.38384     10.62556      5.61067         0.843088     -0.110990     -0.993145
C     14.38384     10.35284     15.36773         1.182459      0.168456      1.100792
C      5.61067      6.59456     10.35284        -0.668365     -0.896345     -0.187266
C     15.36773      6.59456     10.62556         2.002352     -0.312429     -0.187620
C      5.61067     14.38384     10.62556        -1.568472     -0.011714     -0.140971
C     15.36773     14.38384     10.35284         0.485087      0.087689      0.002055
C      5.61067     10.35284      6.59456        -0.275244      0.209218     -1.351902
C     15.36773     10.62556      6.59456         0.293302     -0.261147     -0.983983
C      5.61067     10.62556     14.38384        -0.255388      0.443794      1.458266
C     15.36773     10.35284     14.38384         0.012284     -0.480293      1.944379
C     10.35284      6.59456      5.61067        -0.162846     -0.853587     -0.695669
C     10.62556      6.59456     15.36773        -0.117391     -0.721910      1.047238
C     10.62556     14.38384      5.61067        -0.502543      1.991665     -0.757952
C     10.35284     14.38384     15.36773        -0.262379      1.367984      0.499957
C      6.59456      5.61067     10.35284        -0.985166     -0.410185      0.092900
C      6.59456     15.36773     10.62556        -1.262500      0.370403     -0.332726
C     14.38384      5.61067     10.62556         1.274666     -1.296762      0.209073
C     14.38384     15.36773     10.35284         0.456811      0.311540      0.084363
C     10.40319      3.19606      7.29314         0.001176      0.305356     -0.109727
C     10.35913      4.25547      6.23373         0.141758     -0.569188      0.015898
C      0.08601      7.29314      7.29314        -0.053343     -0.282666     -0.420923
C      0.13007      6.23373      6.23373        -0.122905      0.675300      0.019136
C      0.08601      3.19606      3.19606        -0.105946      1.659039      0.166720
C      0.13007      4.25547      4.25547        -0.094719     -0.393902     -1.211484
C     10.40319      7.29314      3.19606         0.015759     -0.446414      0.122285
C     10.35913      6.23373      4.25547         0.263485      0.085820     -0.531284
C      7.29314     10.40319      3.19606        -1.693274      0.010449      0.324432
C      6.23373     10.35913      4.25547         0.667785      0.080689     -0.621343
C      7.29314      0.08601      7.29314        -0.409970     -0.014838     -0.315710
C      6.23373      0.13007      6.23373         0.720031     -0.057811      0.248657
C      3.19606      0.08601      3.19606         0.660469     -0.018038      0.180622
C      4.25547      0.13007      4.25547        -0.359876     -0.084105     -0.564625
C      3.19606     10.40319      7.29314         0.353041      0.022770     -0.318948
C      4.25547     10.35913      6.23373        -0.739008      0.076503      0.363510
C      3.19606      7.29314     10.40319         0.286385     -0.203779     -0.006523
C      4.25547      6.23373     10.35913         0.042593      0.634913      0.091686
C      7.29314      7.29314      0.08601        -0.716862     -0.610442     -0.026298
C      6.23373      6.23373      0.13007         0.900088      1.124846     -0.066431
C      3.19606      3.19606      0.08601         0.822813      0.513439      0.002636
C      4.25547      4.25547      0.13007        -0.328158     -1.763949     -0.129348
C      7.29314      3.19606     10.40319        -0.325639      0.271488     -0.004399
C      6.23373      4.25547     10.35913         0.507437     -0.022027      0.230484
O     10.43466      3.58206      8.50569        -0.048578      0.186375      0.259346
O     10.54374     17.39634      8.50569         0.042237     -0.235979      0.486347
O     10.54374      3.58206     12.47271         0.083851     -0.073882     -0.024528
O     10.43466     17.39634     12.47271        -0.023108     -0.141833     -0.269965
O      8.50569     10.43466      3.58206         0.992248      0.189105      0.378342
O      8.50569     10.54374     17.39634         0.578694      0.084470     -0.229550
O     12.47271     10.54374      3.58206        -0.414771     -0.040725      0.182637
O     12.47271     10.43466     17.39634        -0.508029     -0.067928     -0.193506
O      3.58206      8.50569     10.43466         0.184291      0.424431     -0.028958
O     17.39634      8.50569     10.54374        -0.230610      0.713350      0.045959
O      3.58206     12.47271     10.54374         0.162120     -0.681621      0.026089
O     17.39634     12.47271     10.43466        -0.186495     -0.475486     -0.010576
O      3.58206     10.43466      8.50569         0.230093     -0.061445      0.405410
O     17.39634     10.54374      8.50569        -0.171745      0.037306      0.412181
O      3.58206     10.54374     12.47271         0.148138      0.021412     -0.303886
O     17.39634     10.43466     12.47271         0.080125     -0.051483     -0.071860
O     10.43466      8.50569      3.58206         0.004206      0.273242      0.183281
O     10.54374      8.50569     17.39634         0.069759      0.427983     -0.175064
O     10.54374     12.47271      3.58206        -0.222009     -0.974434      0.331754
O     10.43466     12.47271     17.39634        -0.082467     -0.450524     -0.245199
O      8.50569      3.58206     10.43466         0.489847      0.197352     -0.010230
O      8.50569     17.39634     10.54374         0.665149     -0.202893      0.022168
O     12.47271      3.58206     10.54374        -0.746626      0.280163      0.037792
O     12.47271     17.39634     10.43466        -0.432989     -0.205529     -0.043714
O     11.90042     11.90042     19.56718        -0.347112     -0.307340      0.260715
O     19.56718     19.56718     19.56718         0.324315      0.311724      0.283921
O     19.56718     11.90042     11.90042         0.274848     -0.274041     -0.138510
O     11.90042     19.56718     11.90042        -0.305346      0.283474     -0.233222
O      9.45224      1.03696      9.45224        -0.061002      0.073035     -0.045464
O      1.03696      9.45224      9.45224         0.035814     -0.075387     -0.070340
O      1.03696      1.03696      1.03696         0.063094      0.148984      0.096225
O      9.45224      9.45224      1.03696        -0.142348     -0.097730      0.096527
Zr     10.48920      2.52580     10.48920         0.163040     -0.172565     -0.167288
Zr     10.48920     18.45260     10.48920        -0.101240      0.186656     -0.050375
Zr     10.48920     10.48920      2.52580         0.342619     -0.310366     -0.203979
Zr     10.48920     10.48920     18.45260         0.013967     -0.088402      0.200760
Zr      2.52580     10.48920     10.48920        -0.071450      0.179045     -0.052352
Zr     18.45260     10.48920     10.48920         0.146190     -0.132161     -0.252249
Ir     12.03895     12.48418     10.45488        -0.005067      0.000361      0.000449
Ir     11.21596      7.41366     10.24954         0.009430     -0.001849     -0.018063
Ir      8.85554      7.35097     11.52765         0.004083     -0.005821     -0.014792
Ir      7.46415     11.64802      7.65764        -0.007129      0.001654     -0.000895
Ir     11.59543     12.07414      7.11325        -0.000778     -0.006727     -0.003446
Ir     13.78302      8.99295      7.52556         0.007726      0.003137     -0.013510
Ir     12.47217     13.95290      8.40788        -0.003891     -0.001375     -0.002283
Ir      9.73853     11.25514      5.54135         0.004831     -0.002627     -0.005181
Ir      9.07461     13.44500      7.07648        -0.003090     -0.010482      0.004421
Ir      9.26772      9.67159      7.50137        -0.005524      0.004049     -0.010573
Ir     13.28627      7.03672     11.95822        -0.000296      0.001122      0.005847
Ir     13.63380      7.04163      9.10831         0.019475     -0.001400     -0.000291
Ir     11.04515      7.59156     12.80381         0.003365     -0.003904     -0.014651
Ir     13.59889     11.56484      8.75140        -0.001848     -0.000713     -0.002995
Ir     11.50289      9.62443      6.22029        -0.003095     -0.008705     -0.005575
Ir      7.16041      9.14799      8.92064         0.004277     -0.007490     -0.003030
Ir     14.05953     11.43942     11.64768         0.004345     -0.000305     -0.004551
Ir     11.66081      9.82923      8.86275         0.001839     -0.011031     -0.011945
Ir      9.44332      9.50054     10.22641        -0.002526     -0.006111     -0.001966
Ir     13.87876      9.41247     10.16853         0.005877      0.002317     -0.003789
Ir     13.83536      9.16341     12.88187         0.006015     -0.004219     -0.011696
Ir     11.70181      9.75878     11.54044         0.005844     -0.001203     -0.007468
Ir      9.91611     11.72945      8.96278         0.003282      0.002295     -0.004222
Ir      9.10693      7.43336      8.77403         0.012410      0.001278     -0.018547
Ir     11.63100      7.52726      7.72599         0.022424     -0.017836     -0.019925
Ir      9.25632      9.46799     13.00394        -0.001376     -0.003896     -0.005881
Ir      7.50628     13.89960      8.99420        -0.000977     -0.002952     -0.001171
Ir     10.86432     14.10052     11.95127        -0.004942     -0.009012      0.000573
Ir     10.11049     14.14634      9.51539        -0.000164     -0.009603     -0.001522
Ir      9.79083     11.67924     11.72310        -0.004100     -0.007805      0.000860
Ir      7.59009     11.56197     10.20653         0.002482     -0.006875      0.000519
Ir      8.34424     13.73427     11.58202        -0.003168     -0.006079     -0.000709
Ir      7.52531     11.54301     12.82188         0.002431     -0.009084     -0.004640
Ir      9.77740     11.59258     14.34232         0.005564     -0.011327     -0.003291
Ir     13.46554     13.88424     12.18637        -0.002730      0.001689     -0.002623
Ir     11.98926     12.04400     13.07717        -0.001901     -0.007564     -0.000472
Ir     11.58529      9.78202     14.17980         0.003411     -0.009827     -0.010535
Ir      7.15736      9.34723     11.48017         0.005469     -0.007197     -0.008268
