152
# total energy = -1060.22357928 eVH     10.35389      5.87395      7.64558        -0.230695      0.115484      1.035837
H     10.62451     15.10445      7.64558         0.182248     -0.079162      0.856786
H     10.62451      5.87395     13.33282        -0.265889      0.079531     -0.752244
H     10.35389     15.10445     13.33282         0.116030     -0.291612     -0.798166
H      7.64558     10.35389      5.87395         0.896372     -0.219539      0.207434
H      7.64558     10.62451     15.10445         0.294570     -0.018422     -0.063283
H     13.33282     10.62451      5.87395        -0.859975      0.169034      0.205615
H     13.33282     10.35389     15.10445        -0.288312     -0.036740     -0.054870
H      5.87395      7.64558     10.35389         0.095834      0.423024     -0.006460
H     15.10445      7.64558     10.62451        -0.058496      0.446909      0.011199
H      5.87395     13.33282     10.62451        -0.001117     -0.937444      0.087109
H     15.10445     13.33282     10.35389        -0.119157     -0.343709      0.009073
H      5.87395     10.35389      7.64558         0.318323      0.057155      0.365996
H     15.10445     10.62451      7.64558        -0.121310     -0.146103      0.630492
H      5.87395     10.62451     13.33282        -0.060451      0.442529     -0.626809
H     15.10445     10.35389     13.33282         0.207723     -0.571285     -0.912427
H     10.35389      7.64558      5.87395        -0.003371      0.483091      0.334634
H     10.62451      7.64558     15.10445         0.352114      0.805842     -0.014228
H     10.62451     13.33282      5.87395         0.128605     -0.564670      0.196102
H     10.35389     13.33282     15.10445         0.055037     -0.306012     -0.161658
H      7.64558      5.87395     10.35389         0.377729      0.119556      0.060175
H      7.64558     15.10445     10.62451         0.380789     -0.130506      0.187708
H     13.33282      5.87395     10.62451        -0.310021      0.135880     -0.010129
H     13.33282     15.10445     10.35389        -0.661255     -0.135879      0.170482
H     12.45634     12.45634     19.01126         0.262331      0.271926     -0.223471
H     19.01126     19.01126     19.01126        -0.250956     -0.267099     -0.241770
H     19.01126     12.45634     12.45634        -0.246673      0.272395      0.237157
H     12.45634     19.01126     12.45634         0.291891     -0.232365      0.235981
C     10.35284      5.61067      6.59456         0.373030     -0.401179     -1.336557
C     10.62556     15.36773      6.59456        -0.197403      0.632829     -0.666681
C     10.62556      5.61067     14.38384         0.361944     -0.276453      0.746099
C     10.35284     15.36773     14.38384        -0.193120      0.267978      0.981177
C      6.59456     10.35284      5.61067        -1.362259      0.026397     -0.204343
C      6.59456     10.62556     15.36773        -0.636152      0.064372      0.352272
C     14.38384     10.62556      5.61067         1.367194     -0.180999     -0.630245
C     14.38384     10.35284     15.36773         0.330608     -0.135779      0.369283
C      5.61067      6.59456     10.35284        -0.268599     -0.651235     -0.025087
C     15.36773      6.59456     10.62556         0.406263     -0.846299     -0.000509
C      5.61067     14.38384     10.62556        -0.157600      1.134669     -0.189544
C     15.36773     14.38384     10.35284         0.483088      0.709250     -0.037896
C      5.61067     10.35284      6.59456        -0.363954     -0.114823     -0.758808
C     15.36773     10.62556      6.59456         0.371149      0.117950     -0.633557
C      5.61067     10.62556     14.38384        -0.374128     -0.149897      1.227135
C     15.36773     10.35284     14.38384         0.196924      0.229818      1.375026
C     10.35284      6.59456      5.61067        -0.069462     -0.711598     -0.492673
C     10.62556      6.59456     15.36773        -0.151886     -1.023925      0.373117
C     10.62556     14.38384      5.61067        -0.496814      0.372855     -0.727005
C     10.35284     14.38384     15.36773        -0.169586      0.708140      0.504538
C      6.59456      5.61067     10.35284        -0.556110     -0.329347      0.011702
C      6.59456     15.36773     10.62556        -0.328002      0.437590      0.072155
C     14.38384      5.61067     10.62556         0.438051     -0.309748      0.005877
C     14.38384     15.36773     10.35284         1.132274      0.465386     -0.101891
C     10.40319      3.19606      7.29314        -0.010981      0.851602     -0.338774
C     10.35913      4.25547      6.23373         0.017184     -0.348372      0.304637
C      0.08601      7.29314      7.29314        -0.023120     -0.417055     -0.498301
C      0.13007      6.23373      6.23373        -0.058340      0.846879      0.093395
C      0.08601      3.19606      3.19606        -0.009470      0.667076      0.257142
C      0.13007      4.25547      4.25547         0.056044     -0.260173     -0.550915
C     10.40319      7.29314      3.19606        -0.062620     -1.082080      0.649885
C     10.35913      6.23373      4.25547        -0.056347      0.324092     -0.182929
C      7.29314     10.40319      3.19606        -1.096658     -0.054618      0.218796
C      6.23373     10.35913      4.25547         0.384176      0.105448     -0.534770
C      7.29314      0.08601      7.29314        -0.551015      0.022712     -0.411970
C      6.23373      0.13007      6.23373         0.171621      0.108738      0.105638
C      3.19606      0.08601      3.19606         0.671405      0.013446      0.170817
C      4.25547      0.13007      4.25547        -0.184261     -0.067211     -0.343067
C      3.19606     10.40319      7.29314         0.430859     -0.027581     -0.946951
C      4.25547     10.35913      6.23373        -0.135136     -0.049276      0.131115
C      3.19606      7.29314     10.40319         0.651315     -0.386165      0.006703
C      4.25547      6.23373     10.35913        -0.116239      0.181672      0.005259
C      7.29314      7.29314      0.08601        -0.440664     -0.296765     -0.012045
C      6.23373      6.23373      0.13007         0.155293      0.140339     -0.082886
C      3.19606      3.19606      0.08601         0.313583      0.514734     -0.017682
C      4.25547      4.25547      0.13007        -0.417147     -0.252429     -0.028291
C      7.29314      3.19606     10.40319        -0.286344      0.600431     -0.006123
C      6.23373      4.25547     10.35913         0.010378     -0.115253      0.017656
O     10.43466      3.58206      8.50569        -0.026690      0.057089      0.266688
O     10.54374     17.39634      8.50569         0.062581     -0.107689      0.562563
O     10.54374      3.58206     12.47271         0.031243      0.108463     -0.410728
O     10.43466     17.39634     12.47271         0.095690     -0.061872     -0.442049
O      8.50569     10.43466      3.58206         0.731697     -0.070152      0.021245
O      8.50569     10.54374     17.39634         0.611104      0.062008     -0.109261
O     12.47271     10.54374      3.58206        -0.630146      0.120698      0.212291
O     12.47271     10.43466     17.39634        -0.321771      0.002571      0.033677
O      3.58206      8.50569     10.43466         0.028778      0.433873     -0.064676
O     17.39634      8.50569     10.54374        -0.055519      0.448897      0.058597
O      3.58206     12.47271     10.54374         0.110037     -0.606415      0.000660
O     17.39634     12.47271     10.43466        -0.192914     -0.746075     -0.044197
O      3.58206     10.43466      8.50569         0.208488     -0.049152      0.797483
O     17.39634     10.54374      8.50569        -0.040214      0.071882      0.436113
O      3.58206     10.54374     12.47271         0.002108     -0.002821     -0.274658
O     17.39634     10.43466     12.47271         0.028403     -0.010352     -0.245159
O     10.43466      8.50569      3.58206        -0.112100      0.513887     -0.098193
O     10.54374      8.50569     17.39634         0.056079      0.533778     -0.083192
O     10.54374     12.47271      3.58206         0.097492     -0.612120      0.126128
O     10.43466     12.47271     17.39634        -0.060785     -0.747190     -0.307348
O      8.50569      3.58206     10.43466         0.396648      0.022683     -0.051618
O      8.50569     17.39634     10.54374         0.645258     -0.152850      0.041573
O     12.47271      3.58206     10.54374        -0.525844      0.118725      0.023746
O     12.47271     17.39634     10.43466        -0.644458     -0.124717      0.044163
O     11.90042     11.90042     19.56718        -0.279755     -0.298875      0.216223
O     19.56718     19.56718     19.56718         0.312120      0.319728      0.292380
O     19.56718     11.90042     11.90042         0.279825     -0.324128     -0.239647
O     11.90042     19.56718     11.90042        -0.315297      0.225384     -0.205395
O      9.45224      1.03696      9.45224        -0.079914      0.098856     -0.078280
O      1.03696      9.45224      9.45224         0.110260     -0.115091     -0.062788
O      1.03696      1.03696      1.03696         0.084798      0.062251      0.084843
O      9.45224      9.45224      1.03696        -0.066994     -0.131922      0.129678
Zr     10.48920      2.52580     10.48920         0.047504     -0.109663      0.153483
Zr     10.48920     18.45260     10.48920        -0.188695      0.251597     -0.351801
Zr     10.48920     10.48920      2.52580         0.129531      0.368273     -0.314638
Zr     10.48920     10.48920     18.45260        -0.075463     -0.267080      0.279893
Zr      2.52580     10.48920     10.48920        -0.250461      0.120243      0.259150
Zr     18.45260     10.48920     10.48920         0.189989     -0.145578     -0.027702
Pd      9.35935     14.35214      9.25146         0.019456      0.033063      0.050677
Pd      8.60550     13.62610     13.09494         0.061877      0.021578      0.039479
Pd     12.05443     14.39747      8.77082        -0.109818      0.049750     -0.026000
Pd     12.69871     12.85943     10.72670        -0.064544     -0.094031      0.095157
Pd     12.14118      7.18992     12.67280        -0.067088     -0.041779     -0.017755
Pd     11.15165     14.95453     11.42279        -0.056962     -0.015120     -0.028215
Pd      9.96906     12.63008     11.02492         0.039071     -0.019574      0.114706
Pd     13.48486     12.20048      7.99166         0.139621     -0.006940      0.018136
Pd     11.51953     11.56883      6.13337        -0.068595      0.060311     -0.155306
Pd      7.92788      8.32602      7.50031        -0.000757     -0.027144     -0.002238
Pd      8.71654     11.74801      6.85051        -0.021698      0.043407     -0.045381
Pd     10.26865      9.43611      8.17581        -0.057236      0.056649     -0.060780
Pd      8.48522     14.45896      6.76356        -0.043592     -0.020655     -0.107614
Pd     12.36534      9.06871      6.65532         0.038556      0.004446      0.010572
Pd      9.74566      9.64354      5.56447         0.027646     -0.046537      0.041218
Pd      6.85179      9.46552     12.15360        -0.026369     -0.063441     -0.069710
Pd     12.21352      6.77080      7.99645        -0.011820     -0.169889     -0.148566
Pd      5.92735     10.51706      9.69276        -0.095447     -0.039765      0.053425
Pd      7.52015      7.21253     13.37006         0.139352      0.055257      0.022983
Ir     11.69670      9.76212     13.07054        -0.132248     -0.009329      0.050551
Ir     13.53322      9.09022     11.48935        -0.076922     -0.059870      0.063450
Ir      9.41246      8.84283     14.02557        -0.125379     -0.028144     -0.085438
Ir     10.49340     10.96001     14.98012        -0.017406     -0.156059      0.035950
Ir      7.27734     12.00522     11.38205        -0.022861      0.036526     -0.191073
Ir     14.62413     10.94068     10.18582        -0.001322      0.119009      0.063756
Ir     12.17121     10.56620      9.61260         0.031796      0.036699      0.118714
Ir      8.80722     11.00172     12.99060         0.277094      0.118344      0.015399
Ir     10.11446      9.93604     11.11695        -0.040335      0.017735      0.067459
Ir     13.66077     11.41802     12.55811        -0.062917      0.096259      0.015949
Ir     11.44471     12.31140     13.08625        -0.141648     -0.089872      0.006146
Ir      8.49741     11.10356      9.33929        -0.028410      0.172826      0.031738
Ir     11.59064      8.02034     10.16590        -0.044559      0.015526      0.093101
Ir      7.22342     13.02926      8.67352        -0.025994      0.189882     -0.017161
Ir      9.54178      6.95242      9.23319         0.038651      0.011783      0.077226
Ir      8.04965      8.76923     10.03541        -0.091258     -0.055734      0.045343
Ir     10.71991     12.13817      8.49445        -0.066245      0.004890      0.008321
Ir      9.50056      7.60554     11.75260         0.089876     -0.019698      0.059011
Ir     13.71144      8.77595      8.89651         0.174931     -0.035457     -0.058664
