152
# total energy = -1005.87821940 eVH     10.35389      5.87395      7.64558         0.171209      0.085502      0.566455
H     10.62451     15.10445      7.64558        -0.108114     -0.151122      0.505917
H     10.62451      5.87395     13.33282         0.509318      0.109290     -0.615399
H     10.35389     15.10445     13.33282         0.048958     -0.174818     -0.473670
H      7.64558     10.35389      5.87395         0.358065      0.030587      0.170797
H      7.64558     10.62451     15.10445         0.736656      0.494074     -0.042788
H     13.33282     10.62451      5.87395        -0.464288      0.350943      0.113633
H     13.33282     10.35389     15.10445        -0.815902     -0.069382      0.001412
H      5.87395      7.64558     10.35389         0.277594      1.090861      0.031524
H     15.10445      7.64558     10.62451        -0.103297      0.481831      0.284502
H      5.87395     13.33282     10.62451         0.159866     -0.679706     -0.151320
H     15.10445     13.33282     10.35389        -0.052641     -0.991497     -0.244923
H      5.87395     10.35389      7.64558         0.227674      0.027762      0.468462
H     15.10445     10.62451      7.64558        -0.134338      0.459310      0.791976
H      5.87395     10.62451     13.33282         0.141897      0.351198     -0.743294
H     15.10445     10.35389     13.33282        -0.076187     -0.041026     -0.672312
H     10.35389      7.64558      5.87395         0.334791      1.114066      0.049053
H     10.62451      7.64558     15.10445         0.639007      0.617283     -0.140569
H     10.62451     13.33282      5.87395        -0.402796     -0.796020      0.241342
H     10.35389     13.33282     15.10445        -0.061820     -0.461843     -0.258883
H      7.64558      5.87395     10.35389         0.936172      0.051559     -0.253504
H      7.64558     15.10445     10.62451         0.825926     -0.186443     -0.016194
H     13.33282      5.87395     10.62451        -0.773522      0.189426      0.563752
H     13.33282     15.10445     10.35389        -0.396009     -0.113083     -0.113636
H     12.45634     12.45634     19.01126         0.241341      0.268308     -0.238102
H     19.01126     19.01126     19.01126        -0.263252     -0.244555     -0.256291
H     19.01126     12.45634     12.45634        -0.270284      0.265245      0.223076
H     12.45634     19.01126     12.45634         0.234008     -0.262567      0.270249
C     10.35284      5.61067      6.59456        -0.347847     -0.690514     -0.036097
C     10.62556     15.36773      6.59456         0.088450      0.352653     -0.269673
C     10.62556      5.61067     14.38384        -0.244711     -0.454560     -0.225595
C     10.35284     15.36773     14.38384         0.005629      0.239846      0.456955
C      6.59456     10.35284      5.61067        -0.360500      0.002829     -0.256006
C      6.59456     10.62556     15.36773        -0.358996     -0.130718      0.700534
C     14.38384     10.62556      5.61067        -0.233109     -0.440738     -0.583882
C     14.38384     10.35284     15.36773         0.980980     -0.078311      0.188351
C      5.61067      6.59456     10.35284        -0.580698     -0.062890     -0.316126
C     15.36773      6.59456     10.62556         0.562539      0.001354     -0.264754
C      5.61067     14.38384     10.62556        -0.319561      0.962420      0.060806
C     15.36773     14.38384     10.35284         0.281088      1.001915      0.049642
C      5.61067     10.35284      6.59456        -0.248879     -0.036116     -0.682352
C     15.36773     10.62556      6.59456         0.446089     -0.277483      0.135876
C      5.61067     10.62556     14.38384        -0.626221     -0.280782     -0.040788
C     15.36773     10.35284     14.38384         0.405965     -0.049021      1.027454
C     10.35284      6.59456      5.61067        -0.217388     -0.591025     -0.562945
C     10.62556      6.59456     15.36773        -0.190740     -0.013968      0.516838
C     10.62556     14.38384      5.61067         0.214767      1.047729     -0.334436
C     10.35284     14.38384     15.36773        -0.000109      0.715278      0.386958
C      6.59456      5.61067     10.35284        -0.113966     -1.022370      0.226083
C      6.59456     15.36773     10.62556        -0.993551      0.251893      0.092173
C     14.38384      5.61067     10.62556         0.385483     -0.529742     -0.373082
C     14.38384     15.36773     10.35284         0.179750      0.413490     -0.068033
C     10.40319      3.19606      7.29314         0.012140      0.745517     -0.492044
C     10.35913      4.25547      6.23373         0.079508     -0.575386      0.068336
C      0.08601      7.29314      7.29314        -0.050622     -0.503401     -0.305457
C      0.13007      6.23373      6.23373        -0.036719      0.114043      0.576287
C      0.08601      3.19606      3.19606         0.006063      1.372158      0.292231
C      0.13007      4.25547      4.25547         0.046422     -0.734747     -0.200823
C     10.40319      7.29314      3.19606         0.009550     -0.314778      0.283039
C     10.35913      6.23373      4.25547         0.022229      0.034503     -0.734333
C      7.29314     10.40319      3.19606        -0.247530      0.018398      0.567565
C      6.23373     10.35913      4.25547         0.156176      0.050737     -0.067423
C      7.29314      0.08601      7.29314        -0.604449     -0.068359     -0.350360
C      6.23373      0.13007      6.23373         0.715260     -0.097355      0.472549
C      3.19606      0.08601      3.19606         0.947409     -0.021661      0.592482
C      4.25547      0.13007      4.25547        -0.592577     -0.072857     -0.540178
C      3.19606     10.40319      7.29314         0.481598     -0.011127     -0.781107
C      4.25547     10.35913      6.23373        -0.282557      0.073306      0.204611
C      3.19606      7.29314     10.40319         0.293087     -1.280645      0.033086
C      4.25547      6.23373     10.35913        -0.965884      0.075594      0.125755
C      7.29314      7.29314      0.08601        -0.416764     -0.392647     -0.021201
C      6.23373      6.23373      0.13007         0.470594      0.236410     -0.002572
C      3.19606      3.19606      0.08601         0.476267      0.385213     -0.040168
C      4.25547      4.25547      0.13007        -0.149334     -0.641934     -0.032586
C      7.29314      3.19606     10.40319        -0.355117      0.432363      0.062065
C      6.23373      4.25547     10.35913         0.298027     -0.702093      0.143826
O     10.43466      3.58206      8.50569        -0.009010      0.090337      0.491694
O     10.54374     17.39634      8.50569         0.044707     -0.153427      0.473107
O     10.54374      3.58206     12.47271         0.037712     -0.113654     -0.178468
O     10.43466     17.39634     12.47271        -0.035286     -0.181199     -0.515655
O      8.50569     10.43466      3.58206         0.262609     -0.020560      0.010574
O      8.50569     10.54374     17.39634         0.668944      0.010599     -0.157340
O     12.47271     10.54374      3.58206        -0.829073      0.099124      0.101166
O     12.47271     10.43466     17.39634        -0.436072      0.028077     -0.084425
O      3.58206      8.50569     10.43466         0.154266      1.042749     -0.022787
O     17.39634      8.50569     10.54374        -0.160235      0.554714      0.074374
O      3.58206     12.47271     10.54374         0.091779     -0.394119      0.053459
O     17.39634     12.47271     10.43466        -0.151378     -0.531867     -0.026577
O      3.58206     10.43466      8.50569         0.080929     -0.076553      0.619718
O     17.39634     10.54374      8.50569        -0.087774      0.078222      0.500312
O      3.58206     10.54374     12.47271        -0.004467      0.034289     -0.484152
O     17.39634     10.43466     12.47271        -0.238098     -0.041777     -0.652036
O     10.43466      8.50569      3.58206        -0.036982      0.443774      0.141449
O     10.54374      8.50569     17.39634         0.021093      0.578747     -0.160358
O     10.54374     12.47271      3.58206         0.038450     -1.046728      0.151737
O     10.43466     12.47271     17.39634         0.042002     -0.739727     -0.187764
O      8.50569      3.58206     10.43466         0.541982      0.155370     -0.058786
O      8.50569     17.39634     10.54374         0.498938     -0.192996      0.011783
O     12.47271      3.58206     10.54374        -0.618586      0.211649     -0.000043
O     12.47271     17.39634     10.43466        -0.241312      0.058776     -0.042973
O     11.90042     11.90042     19.56718        -0.248320     -0.287936      0.241436
O     19.56718     19.56718     19.56718         0.313707      0.299448      0.290341
O     19.56718     11.90042     11.90042         0.305416     -0.263193     -0.237917
O     11.90042     19.56718     11.90042        -0.237610      0.300010     -0.316389
O      9.45224      1.03696      9.45224        -0.008090      0.089358     -0.091492
O      1.03696      9.45224      9.45224         0.089894     -0.079324     -0.141285
O      1.03696      1.03696      1.03696         0.101032      0.184687      0.048016
O      9.45224      9.45224      1.03696        -0.100987     -0.105507      0.032156
Zr     10.48920      2.52580     10.48920        -0.124237     -0.276686     -0.002813
Zr     10.48920     18.45260     10.48920        -0.076814      0.197337      0.080339
Zr     10.48920     10.48920      2.52580        -0.099402     -0.409187     -0.251913
Zr     10.48920     10.48920     18.45260        -0.232564     -0.112600      0.346977
Zr      2.52580     10.48920     10.48920        -0.372053      0.225068      0.256105
Zr     18.45260     10.48920     10.48920         0.206992     -0.000541     -0.181584
Pd     13.60507      8.92851      9.24026        -0.009432     -0.001947      0.007553
Pd      5.65203      9.86662     10.10267        -0.005147      0.003012      0.026804
Pd      6.75629     11.80883     11.67017         0.020780     -0.006908      0.009011
Pd     12.18383     13.07253      7.32419        -0.015628     -0.011844     -0.002742
Pd     11.98263      7.82631      7.36268        -0.019642     -0.015978      0.012329
Pd      8.29063      7.02735      6.58013         0.000316     -0.017597     -0.006930
Pd     10.87288     11.23428      5.59829        -0.042250     -0.016140      0.009177
Pd     14.52665      8.53606      6.77125        -0.025034      0.006160      0.000915
Pd      9.66951     11.78906      8.01047         0.006926     -0.006784      0.022336
Pd      6.86532      6.80354     12.26765        -0.059552     -0.009235      0.016300
Pd      6.39631      7.69451      8.26360         0.020634      0.032475     -0.008963
Pd      6.67541      8.57472     14.21769        -0.061390     -0.020171      0.023791
Pd     11.50085      6.49677      9.71108         0.011315     -0.002108      0.028215
Pd      9.65956      9.28313      7.01247        -0.028794     -0.011540      0.038472
Pd      9.01026     13.97972      9.34637        -0.000743      0.012696     -0.016582
Pd      9.58160      7.31648     11.70879         0.018042     -0.003181     -0.005736
Pd     10.52653      8.96910      9.63779         0.019017      0.001786      0.009055
Pd      9.31768     11.43088     10.60896         0.003719      0.023885      0.016204
Pd      8.87738      7.00958      9.15012         0.015026      0.002440     -0.005595
Pd      8.60387      6.66199     14.22583        -0.004856     -0.001846     -0.030479
Pd      7.75584      9.31840     11.80618        -0.004610     -0.028230      0.043463
Pd     11.97894     10.46503      7.82973         0.004179     -0.015249     -0.016219
Pd      7.13657     12.03887      9.03399         0.002722     -0.001620      0.006140
Pd      8.04778      9.57124      9.08096         0.009690     -0.001188      0.072501
Pd     14.05182      6.46739      8.49159        -0.000925      0.003032     -0.001201
Pd     12.44829      8.26283     11.54050         0.018512      0.014503      0.015917
Pd      8.73883     11.52475     13.38718         0.014417      0.032822     -0.004587
Pd     13.91933     11.93672      9.01051        -0.004444      0.005713     -0.009469
Pd     12.89082     10.59967     13.06956         0.015623      0.012696     -0.008360
Pd     14.77133     10.39023     11.13219         0.004143      0.009276     -0.010236
Pd     12.07711     10.79259     10.55160         0.000320      0.022956     -0.007409
Pd     11.45446     13.21536      9.85460         0.002327      0.029570      0.005763
Pd     13.57890     12.85524     11.65277         0.009997      0.011425     -0.005178
Pd     11.06695     12.56256     12.45114         0.018861      0.017177      0.011866
Pd     10.98032     11.22067     14.82857        -0.004448     -0.040211     -0.008759
Pd     10.44969      9.71267     12.42689         0.011227      0.019984     -0.020172
Pd      9.22848      9.21394     14.62603        -0.063087     -0.001587     -0.071526
Pd      8.74702     13.74995     11.98753         0.022812      0.029401     -0.008393
