31
# total energy = -194.96564929 eVH      2.21122      8.01894      7.50000         0.341447     -0.587190      0.000000
H      8.91818      3.11046      7.50000        -0.341447      0.587190      0.000000
H      3.11046      2.21122      7.50000         0.587190      0.341447      0.000000
H      8.01894      8.91818      7.50000        -0.587190     -0.341447      0.000000
H      1.48607      6.35921      7.50000         0.148299      0.081709      0.000000
H      9.64333      4.77019      7.50000        -0.148299     -0.081709      0.000000
H      4.77019      1.48607      7.50000        -0.081709      0.148299      0.000000
H      6.35921      9.64333      7.50000         0.081709     -0.148299      0.000000
H      4.18138      9.01726      7.50000         0.015883     -0.249661      0.000000
H      6.94802      2.11214      7.50000        -0.015883      0.249661      0.000000
H      2.11214      4.18138      7.50000         0.249661      0.015883      0.000000
H      9.01726      6.94802      7.50000        -0.249661     -0.015883      0.000000
C      8.50180      0.91121      7.50000         0.281333      1.192343      0.000000
C      2.62760     10.21819      7.50000        -0.281333     -1.192343     -0.000000
C     10.21819      8.50180      7.50000        -1.192343      0.281333     -0.000000
C      0.91121      2.62760      7.50000         1.192343     -0.281333     -0.000000
C      9.19702     10.76743      7.50000         0.336473     -0.584674      0.000000
C      1.93238      0.36197      7.50000        -0.336473      0.584674      0.000000
C      0.36197      9.19702      7.50000         0.584674      0.336473     -0.000000
C     10.76743      1.93238      7.50000        -0.584674     -0.336473      0.000000
C      9.37310      2.12635      7.50000         0.217187     -1.358240     -0.000000
C      1.75630      9.00305      7.50000        -0.217187      1.358240      0.000000
C      9.00305      9.37310      7.50000         1.358240      0.217187     -0.000000
C      2.12635      1.75630      7.50000        -1.358240     -0.217187     -0.000000
N      3.97171     10.01546      7.50000         0.001739      0.321662      0.000000
N      7.15769      1.11394      7.50000        -0.001739     -0.321662      0.000000
N      1.11394      3.97171      7.50000        -0.321662      0.001739     -0.000000
N     10.01546      7.15769      7.50000         0.321662     -0.001739      0.000000
Ir     -0.00000     -0.00000      7.50000         0.000000     -0.000000      0.000000
Ir      5.56470     -0.00000      7.50000         0.000000      0.000000      0.000000
Ir     -0.00000      5.56470      7.50000         0.000000     -0.000000      0.000000
