15
# total energy = -121.83588897 eVC      1.38809      0.00497     10.00000        -0.001237     -0.005618      0.000000
C      5.73540      4.18246     10.00000         0.001237      0.005618      0.000000
C      6.42598     -2.88322     10.00000        -0.012775      0.000519      0.000000
C      0.69751      7.07066     10.00000         0.012775     -0.000519      0.000000
C      6.43486      2.98564     10.00000         0.003335     -0.003611      0.000000
C      0.68863      1.20179     10.00000        -0.003335      0.003611     -0.000000
O      1.37321      2.40003     10.00000        -0.004500      0.000232      0.000000
O      5.75028      1.78741     10.00000         0.004500     -0.000232      0.000000
O      4.35514      4.16918     10.00000         0.013531     -0.006146     -0.000000
O      2.76835      0.01825     10.00000        -0.013531      0.006146      0.000000
O      1.38350      5.87300     10.00000        -0.001195      0.004379     -0.000000
O      5.73999     -1.68557     10.00000         0.001195     -0.004379      0.000000
Zr      3.56175      2.09372     10.00000        -0.000000      0.000000      0.000000
Zr      3.56175     -2.04115     10.00000        -0.000000      0.000000      0.000000
Zr      0.00000      4.13487     10.00000        -0.000000      0.000000      0.000000
