152
# total energy = -1022.85253746 eVH     10.35389      5.87395      7.64558         0.479775      0.031825      0.904383
H     10.62451     15.10445      7.64558        -0.047402      0.045430      0.774190
H     10.62451      5.87395     13.33282         0.144173      0.115959     -0.605603
H     10.35389     15.10445     13.33282        -0.262279     -0.078355     -0.561951
H      7.64558     10.35389      5.87395         0.331409     -0.036083      0.190286
H      7.64558     10.62451     15.10445         0.615270     -0.189663     -0.143410
H     13.33282     10.62451      5.87395        -0.855711     -0.317065      0.168237
H     13.33282     10.35389     15.10445        -0.452971     -0.081006     -0.067874
H      5.87395      7.64558     10.35389         0.127064      1.126996     -0.150807
H     15.10445      7.64558     10.62451        -0.170098      0.403795     -0.086880
H      5.87395     13.33282     10.62451         0.142630     -0.405640     -0.071660
H     15.10445     13.33282     10.35389        -0.079031     -0.969460     -0.187992
H      5.87395     10.35389      7.64558         0.126919      0.038661      0.479192
H     15.10445     10.62451      7.64558         0.124909     -0.211797      0.816752
H      5.87395     10.62451     13.33282         0.269388     -0.026868     -0.393660
H     15.10445     10.35389     13.33282        -0.152781      0.015101     -0.613811
H     10.35389      7.64558      5.87395         0.064719      0.845784      0.119838
H     10.62451      7.64558     15.10445         0.022534      0.568608     -0.142799
H     10.62451     13.33282      5.87395         0.063449     -0.602727      0.180543
H     10.35389     13.33282     15.10445        -0.250978     -0.891245     -0.108889
H      7.64558      5.87395     10.35389         0.524847      0.041333     -0.132895
H      7.64558     15.10445     10.62451         0.916487     -0.205898      0.294875
H     13.33282      5.87395     10.62451        -0.436940      0.187522     -0.058561
H     13.33282     15.10445     10.35389        -0.995370     -0.100354      0.261956
H     12.45634     12.45634     19.01126         0.266697      0.257435     -0.224684
H     19.01126     19.01126     19.01126        -0.247734     -0.234998     -0.262019
H     19.01126     12.45634     12.45634        -0.241161      0.270327      0.239507
H     12.45634     19.01126     12.45634         0.210908     -0.282849      0.252942
C     10.35284      5.61067      6.59456        -0.130569     -0.431787     -0.401721
C     10.62556     15.36773      6.59456         0.021424      0.346054     -1.158149
C     10.62556      5.61067     14.38384        -0.029273     -0.223203      0.726666
C     10.35284     15.36773     14.38384         0.180002      0.773480      0.151858
C      6.59456     10.35284      5.61067        -0.412866     -0.040339     -0.180963
C      6.59456     10.62556     15.36773        -0.783256      0.150602      0.349219
C     14.38384     10.62556      5.61067         0.621208      0.286066     -0.368371
C     14.38384     10.35284     15.36773         0.725290     -0.119129      0.422088
C      5.61067      6.59456     10.35284        -0.428172     -0.757190      0.280190
C     15.36773      6.59456     10.62556         0.197496     -0.467768      0.047601
C      5.61067     14.38384     10.62556        -0.256611      0.375500     -0.023391
C     15.36773     14.38384     10.35284         0.397611      0.143384      0.189538
C      5.61067     10.35284      6.59456        -0.310832     -0.013765     -0.890014
C     15.36773     10.62556      6.59456         0.573644     -0.157133     -1.235123
C      5.61067     10.62556     14.38384        -0.459769      0.008560      0.898957
C     15.36773     10.35284     14.38384         0.520017     -0.175795      1.242789
C     10.35284      6.59456      5.61067        -0.039253     -0.905786     -0.670484
C     10.62556      6.59456     15.36773         0.046450     -0.681984      0.298321
C     10.62556     14.38384      5.61067         0.043272      1.246913     -0.691246
C     10.35284     14.38384     15.36773         0.103216      0.604223      0.656508
C      6.59456      5.61067     10.35284        -0.216559     -0.899828      0.131148
C      6.59456     15.36773     10.62556        -1.729362      0.494620      0.044774
C     14.38384      5.61067     10.62556         0.582733     -0.227024     -0.007889
C     14.38384     15.36773     10.35284         0.150212      0.559247     -0.238681
C     10.40319      3.19606      7.29314         0.015279      0.903482     -0.251976
C     10.35913      4.25547      6.23373        -0.051417     -0.370387      0.610251
C      0.08601      7.29314      7.29314        -0.008884     -0.236842     -0.467515
C      0.13007      6.23373      6.23373         0.003713      0.122070      0.211042
C      0.08601      3.19606      3.19606        -0.016721      0.637243      0.181459
C      0.13007      4.25547      4.25547        -0.091328     -0.199343     -0.167827
C     10.40319      7.29314      3.19606        -0.002173     -0.689644      0.530379
C     10.35913      6.23373      4.25547        -0.007516      0.509512     -0.398871
C      7.29314     10.40319      3.19606        -0.339832      0.023035      0.856741
C      6.23373     10.35913      4.25547         0.208241      0.012460     -0.142304
C      7.29314      0.08601      7.29314        -0.308427     -0.046094     -0.271398
C      6.23373      0.13007      6.23373         0.268528     -0.058291      0.293537
C      3.19606      0.08601      3.19606         0.434344     -0.051822      1.298489
C      4.25547      0.13007      4.25547        -0.116271     -0.028437     -0.461898
C      3.19606     10.40319      7.29314         0.701684      0.014981     -0.264210
C      4.25547     10.35913      6.23373        -0.133814      0.030734      0.103511
C      3.19606      7.29314     10.40319         0.607745     -1.269877      0.025669
C      4.25547      6.23373     10.35913        -0.722077      0.838914      0.046387
C      7.29314      7.29314      0.08601        -0.655212     -0.169810     -0.022182
C      6.23373      6.23373      0.13007         0.171434      0.271954     -0.008728
C      3.19606      3.19606      0.08601         0.241236      0.250653     -0.019454
C      4.25547      4.25547      0.13007        -0.053929     -0.036549      0.012331
C      7.29314      3.19606     10.40319        -0.372505      0.795470      0.015772
C      6.23373      4.25547     10.35913         0.880716     -0.157958      0.008949
O     10.43466      3.58206      8.50569        -0.049369      0.033764      0.321041
O     10.54374     17.39634      8.50569        -0.024210     -0.182151      0.601269
O     10.54374      3.58206     12.47271         0.054812      0.064433     -0.325135
O     10.43466     17.39634     12.47271        -0.023108     -0.125833     -0.583760
O      8.50569     10.43466      3.58206         0.381189     -0.024822     -0.013120
O      8.50569     10.54374     17.39634         0.470517      0.053486     -0.143298
O     12.47271     10.54374      3.58206        -0.283467      0.049265     -0.075936
O     12.47271     10.43466     17.39634        -0.851450      0.020427     -0.223875
O      3.58206      8.50569     10.43466         0.041489      0.921706      0.040304
O     17.39634      8.50569     10.54374        -0.040136      0.338766      0.077977
O      3.58206     12.47271     10.54374         0.064564     -0.420891      0.064336
O     17.39634     12.47271     10.43466        -0.170664     -0.778765      0.019779
O      3.58206     10.43466      8.50569        -0.055232     -0.066169      0.228461
O     17.39634     10.54374      8.50569        -0.136662      0.042708      0.459034
O      3.58206     10.54374     12.47271        -0.017121     -0.051947     -0.891099
O     17.39634     10.43466     12.47271        -0.198291      0.042933     -0.765912
O     10.43466      8.50569      3.58206         0.044193      0.679825      0.190459
O     10.54374      8.50569     17.39634         0.053338      0.432956     -0.080365
O     10.54374     12.47271      3.58206        -0.006789     -0.724469      0.226146
O     10.43466     12.47271     17.39634         0.047265     -0.848702     -0.274006
O      8.50569      3.58206     10.43466         0.491815      0.075354     -0.038421
O      8.50569     17.39634     10.54374         0.653315     -0.251605     -0.060416
O     12.47271      3.58206     10.54374        -0.485541      0.163838      0.039907
O     12.47271     17.39634     10.43466        -0.531693     -0.037846     -0.029517
O     11.90042     11.90042     19.56718        -0.304678     -0.312280      0.264754
O     19.56718     19.56718     19.56718         0.286948      0.271951      0.320776
O     19.56718     11.90042     11.90042         0.279660     -0.330489     -0.245149
O     11.90042     19.56718     11.90042        -0.228595      0.290602     -0.240808
O      9.45224      1.03696      9.45224        -0.074742      0.047643     -0.066797
O      1.03696      9.45224      9.45224         0.055247     -0.144525     -0.056924
O      1.03696      1.03696      1.03696         0.044002      0.032477      0.186741
O      9.45224      9.45224      1.03696        -0.040304     -0.092105      0.121679
Zr     10.48920      2.52580     10.48920        -0.008079     -0.072818     -0.022829
Zr     10.48920     18.45260     10.48920         0.057597      0.307072     -0.072530
Zr     10.48920     10.48920      2.52580        -0.103926      0.016520     -0.369456
Zr     10.48920     10.48920     18.45260        -0.132816     -0.153556      0.327453
Zr      2.52580     10.48920     10.48920        -0.349434      0.317613     -0.465933
Zr     18.45260     10.48920     10.48920         0.242931      0.037454     -0.261148
Pd      9.04300     10.26065     13.32975        -0.014535     -0.017448      0.002387
Pd     10.58767      9.72851     10.98881        -0.021880     -0.013134     -0.045820
Pd     13.76151      8.54050     12.68448         0.012762     -0.001242     -0.001436
Pd     10.99978     11.07481     15.01798         0.000916     -0.017476     -0.001125
Pd     12.84926     11.17701     13.01385         0.022721      0.001469      0.005178
Pd     14.97873     10.93791     11.34417         0.011889      0.009350     -0.007555
Pd      6.64890      7.43875     12.34155        -0.000208      0.017851      0.002217
Pd      9.22796      7.26264     10.12364         0.006945      0.015121     -0.029921
Pd      9.26308      7.60492     12.79867         0.012311     -0.006816     -0.023918
Pd     11.69485      7.28686     11.46442         0.009582      0.001322     -0.007225
Pd     11.39872      7.99623      8.86250         0.031900     -0.005227     -0.011505
Pd      7.26237     11.83455     11.95616         0.005045      0.001108     -0.012766
Pd      8.90101     14.67410      9.33435         0.039485      0.003659      0.009520
Pd      8.41923     12.65613     14.32317        -0.011016     -0.012037     -0.007179
Pd     13.53245     14.09319      8.56002         0.080532      0.029594     -0.047439
Pd     10.98665     13.34094      8.51961         0.065264      0.034717      0.037343
Pd     14.09081     11.52231      8.92577         0.001469      0.025658      0.002013
Pd      8.61945     14.10827     12.10266         0.010838     -0.008890      0.000528
Pd     12.24300     13.73360     14.02455        -0.006671     -0.016493      0.003735
Pd     11.15651     14.43741     11.15361         0.022064     -0.009575      0.037299
Pd     14.06103     13.55043     12.17561        -0.011047      0.006194     -0.004768
Pd     12.31265     12.15757     10.67156         0.000091     -0.027724      0.003167
Pd     12.66920     12.33113      6.71868         0.013899      0.034553     -0.015612
Pd     13.65887      8.93981      7.92159         0.037833      0.009354      0.011446
Pd      6.86127      8.46226      8.85395         0.012637      0.007029     -0.010938
Pd      5.52876      9.93370     11.26673        -0.002328      0.030788     -0.051072
Pd      9.14707      9.74168      8.31126         0.033665     -0.020001     -0.014340
Pd      8.81368      7.23342      7.46536        -0.011554     -0.002948     -0.037229
Pd      9.52746     12.08438     10.42388         0.020242      0.003638     -0.007268
Pd     11.53446     10.71096      8.57536         0.022379      0.012216     -0.030174
Pd     11.24452      9.23942      6.44060         0.037839     -0.023746     -0.008681
Pd      9.90708     11.55467      6.39080         0.023342     -0.027773     -0.016013
Ir     11.35126      9.09768     13.36628        -0.000085      0.017115     -0.036561
Ir     13.07486      9.48178     10.39410         0.014681      0.014845     -0.011371
Ir     10.53250     12.36078     12.70871        -0.007390     -0.024940      0.020233
Ir      7.14479     10.97829      9.50660         0.035241      0.006432     -0.019214
Ir      8.40244     12.45852      8.18757         0.082718      0.037652     -0.021282
Ir      8.06792      9.29896     11.11729         0.008260     -0.004154      0.000681
