8
# total energy = -53.46547399 eVC      1.14292     13.23346      0.00000         0.000000     -0.668012     -0.000000
C      1.14292      4.05274      0.00000         0.000000      0.668012      0.000000
O      1.14292      5.25215     -0.00000         0.000000     -0.954206      0.000000
O      1.14292     12.03405      0.00000         0.000000      0.954206     -0.000000
O      0.00000     14.01687      0.00000         0.000000     -0.432836      0.000000
O      0.00000      3.26933      0.00000         0.000000      0.432836     -0.000000
Ir      0.00000      8.64310      0.00000         0.000000      0.000000      0.000000
Ir      0.00000      0.00000      0.00000         0.000000      0.000000      0.000000
