152
# total energy = -1061.23057603 eVH     10.35389      5.87395      7.64558        -0.344592      0.171301      1.130521
H     10.62451     15.10445      7.64558         0.134903     -0.076281      0.814862
H     10.62451      5.87395     13.33282        -0.189183      0.071202     -0.540177
H     10.35389     15.10445     13.33282         0.015246     -0.285189     -0.479814
H      7.64558     10.35389      5.87395         0.752065      0.055067      0.212121
H      7.64558     10.62451     15.10445         0.188261     -0.003111     -0.060832
H     13.33282     10.62451      5.87395        -0.647354     -0.057292      0.159219
H     13.33282     10.35389     15.10445        -0.329431     -0.083183     -0.058561
H      5.87395      7.64558     10.35389         0.127430      0.360908     -0.026586
H     15.10445      7.64558     10.62451        -0.124775      0.702956      0.326913
H      5.87395     13.33282     10.62451         0.132152     -0.549788     -0.012007
H     15.10445     13.33282     10.35389        -0.234326     -0.503752      0.140857
H      5.87395     10.35389      7.64558         0.231666      0.169121      0.377842
H     15.10445     10.62451      7.64558        -0.182836     -0.092315      0.369542
H      5.87395     10.62451     13.33282         0.022295      0.153813     -0.728940
H     15.10445     10.35389     13.33282         0.076945     -0.278858     -0.710863
H     10.35389      7.64558      5.87395        -0.092856      0.450730      0.275266
H     10.62451      7.64558     15.10445         0.433073      0.786140     -0.100325
H     10.62451     13.33282      5.87395         0.325657     -0.574626      0.125296
H     10.35389     13.33282     15.10445         0.143087     -0.577309     -0.098982
H      7.64558      5.87395     10.35389         0.458688      0.159472     -0.014586
H      7.64558     15.10445     10.62451         0.471563     -0.172752      0.321657
H     13.33282      5.87395     10.62451        -0.338438      0.130486     -0.011687
H     13.33282     15.10445     10.35389        -0.537599     -0.230010      0.181666
H     12.45634     12.45634     19.01126         0.244263      0.265272     -0.237760
H     19.01126     19.01126     19.01126        -0.253599     -0.264693     -0.230901
H     19.01126     12.45634     12.45634        -0.232022      0.264500      0.246308
H     12.45634     19.01126     12.45634         0.294008     -0.210438      0.241790
C     10.35284      5.61067      6.59456         0.403026     -0.354092     -1.066345
C     10.62556     15.36773      6.59456        -0.178795      0.714723     -0.508576
C     10.62556      5.61067     14.38384         0.291614     -0.324877      0.536755
C     10.35284     15.36773     14.38384        -0.130484      0.303892      0.591261
C      6.59456     10.35284      5.61067        -0.682077     -0.153097     -0.199141
C      6.59456     10.62556     15.36773        -0.547855      0.070787      0.349144
C     14.38384     10.62556      5.61067         1.031966      0.018750     -0.476961
C     14.38384     10.35284     15.36773         0.287664     -0.084812      0.365717
C      5.61067      6.59456     10.35284        -0.368519     -0.494645      0.029475
C     15.36773      6.59456     10.62556         0.227450     -0.767530     -0.222078
C      5.61067     14.38384     10.62556        -0.212355      0.632533     -0.244859
C     15.36773     14.38384     10.35284         0.369230      0.874696     -0.155852
C      5.61067     10.35284      6.59456        -0.217902     -0.143058     -0.293869
C     15.36773     10.62556      6.59456         0.211931      0.092999     -0.327047
C      5.61067     10.62556     14.38384        -0.399752     -0.028476      1.265030
C     15.36773     10.35284     14.38384         0.256397     -0.026604      0.987774
C     10.35284      6.59456      5.61067        -0.005879     -0.346848     -0.476943
C     10.62556      6.59456     15.36773        -0.082328     -0.956223      0.291705
C     10.62556     14.38384      5.61067        -0.376868     -0.104779     -0.748891
C     10.35284     14.38384     15.36773        -0.238834      0.870384      0.264095
C      6.59456      5.61067     10.35284        -0.474137     -0.318351      0.141989
C      6.59456     15.36773     10.62556        -0.559249      0.535718      0.041929
C     14.38384      5.61067     10.62556         0.345507     -0.330674      0.095432
C     14.38384     15.36773     10.35284         0.823282      0.339906     -0.066079
C     10.40319      3.19606      7.29314        -0.000768      0.696546     -0.372947
C     10.35913      4.25547      6.23373         0.008030     -0.500696      0.363881
C      0.08601      7.29314      7.29314        -0.026971     -0.713306     -0.481314
C      0.13007      6.23373      6.23373        -0.132678      0.851295      0.147066
C      0.08601      3.19606      3.19606        -0.018159      0.336595      0.370065
C      0.13007      4.25547      4.25547         0.062234     -0.150971     -0.648894
C     10.40319      7.29314      3.19606        -0.048059     -1.137243      1.012986
C     10.35913      6.23373      4.25547         0.021471      0.341847     -0.182476
C      7.29314     10.40319      3.19606        -0.935536     -0.058178      0.365801
C      6.23373     10.35913      4.25547         0.264817      0.035262     -0.542456
C      7.29314      0.08601      7.29314        -0.934256      0.004729     -0.389184
C      6.23373      0.13007      6.23373         0.133784      0.008441      0.099613
C      3.19606      0.08601      3.19606         0.344305     -0.002708      0.346019
C      4.25547      0.13007      4.25547        -0.260747     -0.047745     -0.176525
C      3.19606     10.40319      7.29314         0.492880     -0.046815     -1.140692
C      4.25547     10.35913      6.23373        -0.302825     -0.041993      0.135522
C      3.19606      7.29314     10.40319         0.753274     -0.496572      0.015344
C      4.25547      6.23373     10.35913        -0.120057      0.155446      0.002128
C      7.29314      7.29314      0.08601        -0.416451     -0.271546     -0.006105
C      6.23373      6.23373      0.13007         0.299371      0.069924     -0.150998
C      3.19606      3.19606      0.08601         0.344359      0.669541     -0.010425
C      4.25547      4.25547      0.13007        -0.334732     -0.259048      0.050533
C      7.29314      3.19606     10.40319        -0.220571      0.563376      0.020411
C      6.23373      4.25547     10.35913         0.091121     -0.230460     -0.014774
O     10.43466      3.58206      8.50569        -0.017563      0.095108      0.339175
O     10.54374     17.39634      8.50569         0.069630     -0.012740      0.367211
O     10.54374      3.58206     12.47271         0.045566      0.202162     -0.566450
O     10.43466     17.39634     12.47271         0.041169      0.018950     -0.514208
O      8.50569     10.43466      3.58206         0.679276     -0.075430      0.088549
O      8.50569     10.54374     17.39634         0.905930      0.047367     -0.149500
O     12.47271     10.54374      3.58206        -0.351356      0.047918      0.053734
O     12.47271     10.43466     17.39634        -0.340629     -0.014249      0.075641
O      3.58206      8.50569     10.43466         0.001679      0.426535     -0.081078
O     17.39634      8.50569     10.54374        -0.121424      0.420881      0.029327
O      3.58206     12.47271     10.54374         0.120721     -0.673038     -0.008560
O     17.39634     12.47271     10.43466        -0.243772     -0.662091     -0.009335
O      3.58206     10.43466      8.50569         0.130136     -0.048908      0.857338
O     17.39634     10.54374      8.50569         0.034398      0.042431      0.289207
O      3.58206     10.54374     12.47271         0.068134      0.016415     -0.431674
O     17.39634     10.43466     12.47271        -0.042681      0.015993     -0.352570
O     10.43466      8.50569      3.58206        -0.069833      0.566640     -0.131032
O     10.54374      8.50569     17.39634         0.030772      0.764581     -0.145670
O     10.54374     12.47271      3.58206         0.053271     -0.363431      0.095313
O     10.43466     12.47271     17.39634        -0.065940     -0.721800     -0.233831
O      8.50569      3.58206     10.43466         0.348283      0.064992     -0.057778
O      8.50569     17.39634     10.54374         0.520679     -0.132394      0.017846
O     12.47271      3.58206     10.54374        -0.426921      0.106414      0.015502
O     12.47271     17.39634     10.43466        -0.601632     -0.081853      0.050788
O     11.90042     11.90042     19.56718        -0.252166     -0.277315      0.216725
O     19.56718     19.56718     19.56718         0.292533      0.301559      0.254689
O     19.56718     11.90042     11.90042         0.242470     -0.296793     -0.298253
O     11.90042     19.56718     11.90042        -0.294094      0.168714     -0.249316
O      9.45224      1.03696      9.45224        -0.111894      0.119193     -0.089799
O      1.03696      9.45224      9.45224         0.138332     -0.138620     -0.149294
O      1.03696      1.03696      1.03696         0.139355      0.191111     -0.017888
O      9.45224      9.45224      1.03696        -0.188017     -0.189552      0.042793
Zr     10.48920      2.52580     10.48920         0.015439     -0.249496      0.227151
Zr     10.48920     18.45260     10.48920        -0.219167      0.260033     -0.315850
Zr     10.48920     10.48920      2.52580         0.214030      0.509132     -0.192071
Zr     10.48920     10.48920     18.45260         0.019670     -0.122758      0.480933
Zr      2.52580     10.48920     10.48920        -0.513220      0.080269      0.393850
Zr     18.45260     10.48920     10.48920         0.239032     -0.153466      0.044467
Pd      9.06987     14.49729      9.17669         0.080985     -0.153863      0.030495
Pd      8.28140     13.22878     13.72743         0.057421     -0.001152     -0.015209
Pd     11.86089     14.34286      8.88650         0.086233     -0.013430     -0.078190
Pd     12.28002     12.81152     10.93826        -0.066380     -0.065831     -0.086258
Pd     11.89809      7.12921     12.18235        -0.035436     -0.118067      0.002562
Pd     10.94660     15.27148     11.23495         0.024261      0.009201     -0.139780
Pd      9.54155     13.05709     11.37511         0.070664     -0.057579     -0.053382
Pd     13.88296     12.64418      8.37718        -0.069191     -0.066700     -0.094450
Pd     11.76017     11.67076      6.84975        -0.037893      0.083817     -0.044512
Pd      7.51021      8.41581      7.35925         0.052832      0.049368     -0.030343
Pd      8.84008     11.93529      6.88505        -0.076978      0.060362     -0.034905
Pd      9.84937      9.76088      8.05839        -0.049811     -0.043718      0.088307
Pd      8.49146     14.57307      6.50969         0.038885      0.023370      0.013335
Pd     12.21773      8.95537      6.98428        -0.040815      0.026362      0.047106
Pd     10.16700      9.91831      5.44796        -0.033662      0.043539     -0.028167
Pd      6.91494      9.16997     12.25011        -0.060973     -0.022437     -0.004081
Pd     12.28236      6.42161      7.91859         0.114122      0.085535     -0.067792
Pd      5.62985     10.54277      9.97249         0.007626     -0.017330      0.020519
Pd      7.67205      6.70678     12.99451        -0.031536     -0.065128     -0.000381
Ir     11.29953      9.62525     12.96945         0.078172     -0.040679      0.005497
Ir     13.12471      9.22987     11.27430         0.156818      0.167849     -0.052995
Ir      9.19680      8.53411     13.94688        -0.054431     -0.058472     -0.014749
Ir     10.26056     10.55881     15.14309        -0.027615     -0.032188      0.019144
Ir      7.05811     11.80661     11.75501         0.019613      0.012278      0.125450
Ir     14.51531     11.12066     10.45738        -0.082460     -0.103140      0.120087
Ir     12.39076     10.53682      9.19493        -0.061902      0.123466     -0.094335
Ir      8.90025     10.81501     12.92909         0.011396      0.161567      0.042044
Ir     10.03497     10.24191     10.70459         0.028097      0.020550     -0.057360
Ir     13.30374     11.29397     12.69087         0.072725     -0.031910     -0.044497
Ir     11.07447     12.12799     13.31981        -0.053947     -0.020748      0.063436
Ir      8.01915     11.60499      9.46146         0.091427      0.093970     -0.067404
Ir     11.35751      8.12380      9.67540        -0.153384     -0.038128     -0.021757
Ir      6.95684     13.31087      8.16525         0.055686     -0.048905      0.076338
Ir      9.17674      7.18077      8.99562         0.092641      0.134123      0.035806
Ir      7.84115      9.10119      9.83640         0.005706      0.037616     -0.078043
Ir     10.45783     12.22775      9.00371        -0.098586      0.098279      0.039968
Ir      9.40903      7.86477     11.46626         0.017633     -0.065568     -0.129725
Ir     13.80306      8.33375      8.98523         0.000704      0.003844     -0.035944
