152
# total energy = -1110.38408397 eVH     10.35389      5.87395      7.64558        -0.366221     -0.135732      1.097966
H     10.62451     15.10445      7.64558         0.345507      0.078993      0.933906
H     10.62451      5.87395     13.33282        -0.323204     -0.690151     -1.371228
H     10.35389     15.10445     13.33282        -0.602469      0.423208     -0.326989
H      7.64558     10.35389      5.87395         0.545640     -0.524614     -0.091754
H      7.64558     10.62451     15.10445         0.380814     -0.239595      0.045989
H     13.33282     10.62451      5.87395        -0.562057      0.636845     -0.038480
H     13.33282     10.35389     15.10445        -0.526613      0.402391      0.160339
H      5.87395      7.64558     10.35389         0.149309      0.544818      0.031926
H     15.10445      7.64558     10.62451         0.431219      0.987178      0.266826
H      5.87395     13.33282     10.62451        -0.223061     -0.492495      0.361999
H     15.10445     13.33282     10.35389         0.027586     -0.301548     -0.380473
H      5.87395     10.35389      7.64558        -0.089008     -0.384127      1.452850
H     15.10445     10.62451      7.64558         0.214884      0.487875      1.310005
H      5.87395     10.62451     13.33282        -0.205094     -0.365335     -1.193828
H     15.10445     10.35389     13.33282         0.590202      0.955097     -1.526508
H     10.35389      7.64558      5.87395        -0.560218      0.513145     -0.177624
H     10.62451      7.64558     15.10445        -0.140260      0.482469      0.174444
H     10.62451     13.33282      5.87395         0.878304     -1.358276     -0.316945
H     10.35389     13.33282     15.10445         0.245997     -0.558514     -0.096436
H      7.64558      5.87395     10.35389         0.715431      0.170608     -0.160682
H      7.64558     15.10445     10.62451         1.981036      0.765491      0.217037
H     13.33282      5.87395     10.62451        -2.680570     -0.940754     -0.484881
H     13.33282     15.10445     10.35389        -0.878998     -0.053215     -0.249599
H     12.45634     12.45634     19.01126         0.272012      0.257938     -0.227120
H     19.01126     19.01126     19.01126        -0.266819     -0.255129     -0.238411
H     19.01126     12.45634     12.45634        -0.283270      0.281281      0.186135
H     12.45634     19.01126     12.45634         0.256019     -0.250973      0.236001
C     10.35284      5.61067      6.59456         0.079697     -0.497486     -1.223158
C     10.62556     15.36773      6.59456         0.178606      0.756274     -0.813044
C     10.62556      5.61067     14.38384         0.186272     -0.308251      1.799406
C     10.35284     15.36773     14.38384         0.095021      0.383715      1.802539
C      6.59456     10.35284      5.61067        -1.132785     -0.110556     -0.873815
C      6.59456     10.62556     15.36773        -0.701982     -0.099656      0.778048
C     14.38384     10.62556      5.61067         0.857001     -0.109442     -0.999151
C     14.38384     10.35284     15.36773         1.194590      0.167046      1.103405
C      5.61067      6.59456     10.35284        -0.668681     -0.880138     -0.182434
C     15.36773      6.59456     10.62556         1.984507     -0.279831     -0.185868
C      5.61067     14.38384     10.62556        -1.569857     -0.007156     -0.135024
C     15.36773     14.38384     10.35284         0.486261      0.079599      0.008596
C      5.61067     10.35284      6.59456        -0.277042      0.198765     -1.344665
C     15.36773     10.62556      6.59456         0.286970     -0.244685     -0.994043
C      5.61067     10.62556     14.38384        -0.256391      0.432007      1.458160
C     15.36773     10.35284     14.38384         0.037305     -0.453894      1.935540
C     10.35284      6.59456      5.61067        -0.173307     -0.871719     -0.688111
C     10.62556      6.59456     15.36773        -0.113559     -0.748269      1.053118
C     10.62556     14.38384      5.61067        -0.502867      2.002660     -0.770273
C     10.35284     14.38384     15.36773        -0.271775      1.399263      0.494999
C      6.59456      5.61067     10.35284        -0.974020     -0.410526      0.087948
C      6.59456     15.36773     10.62556        -1.282787      0.374481     -0.330904
C     14.38384      5.61067     10.62556         1.281272     -1.278883      0.188915
C     14.38384     15.36773     10.35284         0.450899      0.312655      0.077587
C     10.40319      3.19606      7.29314         0.001377      0.308164     -0.105353
C     10.35913      4.25547      6.23373         0.140588     -0.548675      0.016112
C      0.08601      7.29314      7.29314        -0.053056     -0.293449     -0.423339
C      0.13007      6.23373      6.23373        -0.121256      0.693906      0.026019
C      0.08601      3.19606      3.19606        -0.106435      1.641288      0.170561
C      0.13007      4.25547      4.25547        -0.087975     -0.399184     -1.223805
C     10.40319      7.29314      3.19606         0.015959     -0.435872      0.123072
C     10.35913      6.23373      4.25547         0.261763      0.083876     -0.517555
C      7.29314     10.40319      3.19606        -1.676873      0.008507      0.324277
C      6.23373     10.35913      4.25547         0.659238      0.076915     -0.611140
C      7.29314      0.08601      7.29314        -0.408412     -0.013097     -0.310670
C      6.23373      0.13007      6.23373         0.697564     -0.055799      0.258464
C      3.19606      0.08601      3.19606         0.656810     -0.016756      0.183871
C      4.25547      0.13007      4.25547        -0.369838     -0.079134     -0.543909
C      3.19606     10.40319      7.29314         0.362757      0.020165     -0.316013
C      4.25547     10.35913      6.23373        -0.728330      0.070235      0.364635
C      3.19606      7.29314     10.40319         0.291190     -0.208706     -0.006652
C      4.25547      6.23373     10.35913         0.042856      0.641830      0.091275
C      7.29314      7.29314      0.08601        -0.718817     -0.610844     -0.022697
C      6.23373      6.23373      0.13007         0.889219      1.127495     -0.068939
C      3.19606      3.19606      0.08601         0.818938      0.509436      0.006619
C      4.25547      4.25547      0.13007        -0.330621     -1.752615     -0.129934
C      7.29314      3.19606     10.40319        -0.328526      0.273879     -0.003944
C      6.23373      4.25547     10.35913         0.505294     -0.026254      0.229193
O     10.43466      3.58206      8.50569        -0.048397      0.183997      0.258152
O     10.54374     17.39634      8.50569         0.042324     -0.233567      0.485220
O     10.54374      3.58206     12.47271         0.083479     -0.066921     -0.032871
O     10.43466     17.39634     12.47271        -0.023146     -0.141586     -0.273049
O      8.50569     10.43466      3.58206         0.987000      0.186847      0.383841
O      8.50569     10.54374     17.39634         0.575738      0.084759     -0.229309
O     12.47271     10.54374      3.58206        -0.420089     -0.039215      0.185399
O     12.47271     10.43466     17.39634        -0.513329     -0.069070     -0.195466
O      3.58206      8.50569     10.43466         0.183505      0.428908     -0.029555
O     17.39634      8.50569     10.54374        -0.230730      0.715381      0.044951
O      3.58206     12.47271     10.54374         0.161452     -0.679126      0.025451
O     17.39634     12.47271     10.43466        -0.185851     -0.478113     -0.011337
O      3.58206     10.43466      8.50569         0.225600     -0.060387      0.402512
O     17.39634     10.54374      8.50569        -0.171182      0.036949      0.410801
O      3.58206     10.54374     12.47271         0.147867      0.021026     -0.305001
O     17.39634     10.43466     12.47271         0.074329     -0.050436     -0.078677
O     10.43466      8.50569      3.58206         0.001693      0.274797      0.182230
O     10.54374      8.50569     17.39634         0.070296      0.434364     -0.178187
O     10.54374     12.47271      3.58206        -0.221978     -0.971195      0.340357
O     10.43466     12.47271     17.39634        -0.083638     -0.450328     -0.245239
O      8.50569      3.58206     10.43466         0.492665      0.196751     -0.011313
O      8.50569     17.39634     10.54374         0.665130     -0.200095      0.021842
O     12.47271      3.58206     10.54374        -0.744546      0.278647      0.036566
O     12.47271     17.39634     10.43466        -0.435856     -0.203969     -0.043969
O     11.90042     11.90042     19.56718        -0.346710     -0.307566      0.259554
O     19.56718     19.56718     19.56718         0.324840      0.312002      0.282956
O     19.56718     11.90042     11.90042         0.275963     -0.275730     -0.139926
O     11.90042     19.56718     11.90042        -0.305728      0.285162     -0.233761
O      9.45224      1.03696      9.45224        -0.059738      0.072269     -0.046869
O      1.03696      9.45224      9.45224         0.035800     -0.074082     -0.071586
O      1.03696      1.03696      1.03696         0.060228      0.144195      0.099565
O      9.45224      9.45224      1.03696        -0.137854     -0.093491      0.099806
Zr     10.48920      2.52580     10.48920         0.158323     -0.169093     -0.163698
Zr     10.48920     18.45260     10.48920        -0.099772      0.182581     -0.047575
Zr     10.48920     10.48920      2.52580         0.336294     -0.309114     -0.199510
Zr     10.48920     10.48920     18.45260         0.009795     -0.088116      0.204439
Zr      2.52580     10.48920     10.48920        -0.069066      0.175037     -0.051673
Zr     18.45260     10.48920     10.48920         0.142992     -0.129598     -0.249862
Ir     12.04342     12.48417     10.45925        -0.008660      0.003340     -0.010690
Ir     11.20453      7.41654     10.27829         0.007147     -0.007509     -0.020411
Ir      8.84758      7.35969     11.55020         0.007359     -0.003469     -0.014400
Ir      7.47678     11.65103      7.66241        -0.007347     -0.001620     -0.005328
Ir     11.59274     12.08263      7.12070        -0.002115      0.001585      0.007811
Ir     13.77102      8.99267      7.54170         0.007590      0.003330     -0.016572
Ir     12.47864     13.95658      8.41611        -0.017052     -0.023347     -0.002464
Ir      9.73000     11.25936      5.55469         0.010187     -0.005647     -0.003760
Ir      9.07783     13.45863      7.07706        -0.004119     -0.015748      0.006684
Ir      9.27460      9.66566      7.51554         0.000530      0.007588     -0.010947
Ir     13.28544      7.03939     11.95574         0.000243     -0.005475     -0.001471
Ir     13.61056      7.04029      9.11417         0.024263     -0.005041      0.000197
Ir     11.04434      7.59599     12.82799         0.003619     -0.001884     -0.016965
Ir     13.60438     11.56539      8.75433        -0.004204      0.002966     -0.005354
Ir     11.50396      9.63820      6.22997        -0.003583     -0.007746      0.002081
Ir      7.15594      9.16030      8.93208         0.005933     -0.009820     -0.006145
Ir     14.06032     11.43660     11.65588         0.004046      0.003252     -0.005129
Ir     11.65689      9.84565      8.88044        -0.001392     -0.006065     -0.019469
Ir      9.43740      9.50724     10.23893         0.007277     -0.004099     -0.008202
Ir     13.87119      9.40993     10.18004         0.014705     -0.001229     -0.007712
Ir     13.82155      9.16227     12.89551         0.019371      0.004963      0.003972
Ir     11.69463      9.76238     11.55613        -0.001927     -0.001463     -0.015533
Ir      9.91004     11.73790      8.97139         0.009672     -0.000480     -0.014470
Ir      9.08820      7.43215      8.80302         0.014227      0.000448     -0.017848
Ir     11.59313      7.55106      7.75267         0.026308     -0.012859     -0.021085
Ir      9.25591      9.47811     13.01321         0.000709     -0.014637     -0.003464
Ir      7.51240     13.90451      8.99624         0.000315     -0.009156     -0.000495
Ir     10.87465     14.10592     11.95205        -0.011371      0.001086     -0.001642
Ir     10.11237     14.15488      9.52155         0.002770     -0.017254     -0.006253
Ir      9.79134     11.68719     11.72830        -0.003439     -0.005379     -0.008457
Ir      7.58636     11.56943     10.21420         0.004420     -0.003240     -0.006618
Ir      8.34921     13.74370     11.58689        -0.005356     -0.008090     -0.004099
Ir      7.52517     11.55810     12.82877        -0.004853     -0.011878      0.001232
Ir      9.77189     11.60863     14.34546         0.004640     -0.009241     -0.000406
Ir     13.47321     13.88368     12.18978         0.002159      0.012839      0.000239
Ir     11.99097     12.04885     13.08214        -0.002491     -0.006726      0.007459
Ir     11.57843      9.79702     14.19656         0.008086     -0.010075     -0.003197
Ir      7.15355      9.35907     11.49418         0.001773     -0.013259     -0.008690
