152
# total energy = -1089.05675370 eVH     10.35389      5.87395      7.64558         0.988055     -1.824837      1.181985
H     10.62451     15.10445      7.64558        -0.333677      1.024126      1.791869
H     10.62451      5.87395     13.33282         1.107969     -1.523149     -2.350602
H     10.35389     15.10445     13.33282        -0.739303      1.098546     -2.006847
H      7.64558     10.35389      5.87395         0.395365     -0.218052     -0.005698
H      7.64558     10.62451     15.10445         0.684619     -0.334134      0.118364
H     13.33282     10.62451      5.87395        -0.508966      0.023267      0.105989
H     13.33282     10.35389     15.10445        -0.625661      0.253463      0.047571
H      5.87395      7.64558     10.35389        -0.436292      1.069491      0.306724
H     15.10445      7.64558     10.62451         0.103471      0.848942     -0.020756
H      5.87395     13.33282     10.62451         0.038546     -0.520503      0.004595
H     15.10445     13.33282     10.35389         0.134128     -0.945681      0.117745
H      5.87395     10.35389      7.64558         0.007988      0.003054      0.668319
H     15.10445     10.62451      7.64558         0.025642      0.029629      0.320842
H      5.87395     10.62451     13.33282        -0.409218      0.670279     -0.483545
H     15.10445     10.35389     13.33282         0.613768     -0.384433      0.380844
H     10.35389      7.64558      5.87395        -0.607931      0.206134     -0.589154
H     10.62451      7.64558     15.10445         0.235479      0.696998      0.673642
H     10.62451     13.33282      5.87395        -0.182143     -1.087778     -0.275536
H     10.35389     13.33282     15.10445        -0.265265     -1.199083      0.411175
H      7.64558      5.87395     10.35389         1.107299     -0.645067      0.394876
H      7.64558     15.10445     10.62451         0.913257     -0.008241     -0.086674
H     13.33282      5.87395     10.62451        -0.987434     -0.176160      0.297812
H     13.33282     15.10445     10.35389        -0.555282      0.137700      0.064230
H     12.45634     12.45634     19.01126         0.263125      0.248930     -0.245127
H     19.01126     19.01126     19.01126        -0.258397     -0.257814     -0.238134
H     19.01126     12.45634     12.45634        -0.255131      0.262332      0.237259
H     12.45634     19.01126     12.45634         0.254175     -0.264411      0.234884
C     10.35284      5.61067      6.59456        -0.450215     -0.174172     -2.239556
C     10.62556     15.36773      6.59456         0.200292     -0.091170     -2.059964
C     10.62556      5.61067     14.38384        -0.004303     -0.889551      2.656049
C     10.35284     15.36773     14.38384         0.153569      0.262551      2.099827
C      6.59456     10.35284      5.61067        -0.558626     -0.055046     -0.370865
C      6.59456     10.62556     15.36773        -0.944608      0.053294      0.444888
C     14.38384     10.62556      5.61067         0.659002      0.026309     -0.173275
C     14.38384     10.35284     15.36773         0.846323     -0.101994      0.344550
C      5.61067      6.59456     10.35284        -0.808257     -0.858238      0.369172
C     15.36773      6.59456     10.62556         0.456737     -1.277443      0.001378
C      5.61067     14.38384     10.62556        -0.459336      0.907379      0.028908
C     15.36773     14.38384     10.35284         0.417654      0.803071      0.104239
C      5.61067     10.35284      6.59456        -0.607323      0.070827     -1.732469
C     15.36773     10.62556      6.59456         0.733673      0.023199     -1.846184
C      5.61067     10.62556     14.38384        -0.751676     -0.037962      2.171514
C     15.36773     10.35284     14.38384         0.657923     -0.100679      1.772105
C     10.35284      6.59456      5.61067         0.135519     -1.825632     -0.890049
C     10.62556      6.59456     15.36773         0.066991     -2.685019      1.359617
C     10.62556     14.38384      5.61067         0.134438      1.691527     -0.733150
C     10.35284     14.38384     15.36773         0.103801      2.413386      1.024672
C      6.59456      5.61067     10.35284        -1.089551     -1.181693      0.295870
C      6.59456     15.36773     10.62556        -1.561646      0.309939      0.006822
C     14.38384      5.61067     10.62556         2.263789     -0.843437     -0.102782
C     14.38384     15.36773     10.35284         0.398989      0.742346      0.012897
C     10.40319      3.19606      7.29314        -0.007873      0.671592     -0.328231
C     10.35913      4.25547      6.23373         0.070387     -0.823482      0.730743
C      0.08601      7.29314      7.29314        -0.033667     -0.841773     -0.299112
C      0.13007      6.23373      6.23373        -0.187506      0.923632      0.891291
C      0.08601      3.19606      3.19606        -0.069430      0.488258      0.445013
C      0.13007      4.25547      4.25547         0.029875     -0.964113     -0.658564
C     10.40319      7.29314      3.19606         0.029622     -0.317657      0.253618
C     10.35913      6.23373      4.25547         0.060936      0.695899     -0.566237
C      7.29314     10.40319      3.19606        -0.396238      0.025531      0.556734
C      6.23373     10.35913      4.25547         0.337195      0.025882     -0.457872
C      7.29314      0.08601      7.29314        -0.435287      0.055271     -0.505496
C      6.23373      0.13007      6.23373         0.162445      0.132117      0.561404
C      3.19606      0.08601      3.19606         0.201278      0.014413      0.616601
C      4.25547      0.13007      4.25547        -0.461506      0.123955     -0.360302
C      3.19606     10.40319      7.29314         0.515390     -0.012293     -0.675748
C      4.25547     10.35913      6.23373        -0.413728      0.042377      0.616966
C      3.19606      7.29314     10.40319         0.368410     -0.591526     -0.019706
C      4.25547      6.23373     10.35913        -0.696004      0.433125     -0.143657
C      7.29314      7.29314      0.08601        -0.280998     -0.181406     -0.004030
C      6.23373      6.23373      0.13007         0.045661      0.511189     -0.033585
C      3.19606      3.19606      0.08601         0.493098      0.088945     -0.020870
C      4.25547      4.25547      0.13007        -0.096542     -0.414858     -0.039659
C      7.29314      3.19606     10.40319        -0.463153      0.543135     -0.011003
C      6.23373      4.25547     10.35913         0.626840     -0.700769     -0.105083
O     10.43466      3.58206      8.50569         0.008615      0.143382      0.285361
O     10.54374     17.39634      8.50569         0.018732     -0.131830      0.281007
O     10.54374      3.58206     12.47271         0.082711      0.193547     -0.401979
O     10.43466     17.39634     12.47271        -0.073828     -0.248390     -0.337756
O      8.50569     10.43466      3.58206         0.510486     -0.001896      0.151966
O      8.50569     10.54374     17.39634         0.448044      0.068130     -0.116933
O     12.47271     10.54374      3.58206        -0.363171      0.036267      0.102874
O     12.47271     10.43466     17.39634        -0.517499     -0.048810     -0.103967
O      3.58206      8.50569     10.43466         0.133703      0.592857     -0.057119
O     17.39634      8.50569     10.54374        -0.152910      0.443176      0.024040
O      3.58206     12.47271     10.54374         0.088891     -0.340421      0.047632
O     17.39634     12.47271     10.43466        -0.189347     -0.614333     -0.025442
O      3.58206     10.43466      8.50569         0.243973     -0.079810      0.615500
O     17.39634     10.54374      8.50569        -0.193780      0.004399      0.511558
O      3.58206     10.54374     12.47271         0.299291     -0.036962     -0.534201
O     17.39634     10.43466     12.47271        -0.171248     -0.025733     -0.547671
O     10.43466      8.50569      3.58206         0.004197      0.455986      0.228318
O     10.54374      8.50569     17.39634         0.110389      0.706760     -0.353598
O     10.54374     12.47271      3.58206         0.008832     -0.595248      0.261432
O     10.43466     12.47271     17.39634        -0.081418     -0.641558     -0.321614
O      8.50569      3.58206     10.43466         0.588213      0.180344     -0.041886
O      8.50569     17.39634     10.54374         0.428710     -0.190609      0.033857
O     12.47271      3.58206     10.54374        -0.513451      0.190395     -0.003274
O     12.47271     17.39634     10.43466        -0.552330     -0.157635     -0.024933
O     11.90042     11.90042     19.56718        -0.301117     -0.286617      0.240499
O     19.56718     19.56718     19.56718         0.298734      0.300447      0.226173
O     19.56718     11.90042     11.90042         0.307898     -0.311921     -0.280816
O     11.90042     19.56718     11.90042        -0.295477      0.319577     -0.272239
O      9.45224      1.03696      9.45224        -0.039694      0.045874     -0.121622
O      1.03696      9.45224      9.45224         0.040651     -0.026664     -0.123670
O      1.03696      1.03696      1.03696         0.068957      0.065567      0.061524
O      9.45224      9.45224      1.03696        -0.064881     -0.046233      0.065730
Zr     10.48920      2.52580     10.48920        -0.140737     -0.112793      0.081765
Zr     10.48920     18.45260     10.48920         0.101019      0.061694      0.042825
Zr     10.48920     10.48920      2.52580        -0.001315     -0.003126     -0.174046
Zr     10.48920     10.48920     18.45260         0.043881      0.007554      0.268542
Zr      2.52580     10.48920     10.48920        -0.121384     -0.034670     -0.000785
Zr     18.45260     10.48920     10.48920         0.172655      0.049793      0.084117
Pd     13.32299      8.55678      8.00304         0.531041     -0.222436     -0.039579
Pd      8.74514     13.99441     11.92504         0.000017      0.206991      0.189645
Pd     12.19424     11.08966     10.64845        -0.567259     -0.035419     -0.131316
Pd     14.45375     10.72985     11.90038         0.289751      0.483022     -1.051120
Pd     11.04642      8.99826      6.66147         0.891047      1.135056     -0.505770
Pd      7.57450      7.44831      9.31167        -1.821834      0.160915     -0.933755
Ir      9.89098     11.53726     11.98175        -0.298112     -0.111182     -0.216383
Ir     13.29942      8.62332     10.69782        -0.401022      0.179991     -0.158694
Ir     12.16304     11.04535      7.95200        -0.392013      0.355049      0.462625
Ir      8.77380     13.85178      9.22977         0.308473     -0.503751      0.135037
Ir     11.02069      9.11190     12.03278         0.479589      0.752737     -0.264688
Ir      8.72551      9.42030      8.00389        -0.737973      2.649990      0.086069
Ir     13.29495     13.02528      9.23228        -0.156463     -0.491373     -0.479005
Ir     11.06193     13.39895      7.93273         0.714294     -0.274798      0.536126
Ir     14.40044     10.63210      9.33389        -0.619364     -0.027561      0.002566
Ir      9.87470      7.03557     10.74222         0.464457     -0.225013      0.505106
Ir      7.63626     11.84946      7.96903         0.248433      0.357195      0.176012
Ir      9.73718      7.32637      8.22856         1.238931     -3.077585     -1.685884
Ir     11.09836     13.50752     13.21989         1.305907     -0.506095     -0.471866
Ir     12.14189      6.73208     12.07531        -0.190650      1.251781      0.035999
Ir      9.88375     11.46372      9.28712        -0.288366     -0.252422      0.142439
Ir     13.28001      8.69720     13.36605         0.013079     -0.395297      0.054384
Ir     11.02071      9.02917      9.35982         1.352305      1.717774      1.144596
Ir     11.03991     13.54216     10.57478        -0.173856      0.005787     -0.260862
Ir     13.27970     13.12573     11.93995        -0.543918      0.207802      0.226971
Ir     12.15323     11.17362     13.34617        -0.200848      0.304211     -0.390171
Ir      9.88471     11.37098      6.65238        -0.137907     -0.219996      0.483410
Ir     12.09385      6.63779      9.43357        -1.004595      0.548951     -0.004390
Ir      7.60238      7.54225     12.09870        -0.607377      0.135121      0.025417
Ir      7.59973     11.92779     10.61843         0.423717      0.136459      0.023904
Ir     11.03581      9.27042     14.66008         0.390895      1.063357     -0.479109
Ir      7.63888     11.99741     13.28985         0.046907     -0.062443     -0.193761
Ir      6.49323      9.89507      9.38587         0.173191      0.716645      0.740963
Ir      8.73190      9.53707     13.36384        -0.465080      1.520850     -0.169637
Ir      6.50673      9.90761     11.92395         0.219208     -0.491406     -1.477420
Ir      9.69981      7.30751     13.33603        -0.649481     -1.095255      0.330375
Ir      9.89298     11.53910     14.62712        -0.404252     -0.470291     -0.423465
Ir      8.72214      9.48810     10.68642         0.233582      0.349364      0.219979
