31
# total energy = -195.18705185 eVH      2.21238      8.01477      7.50000         0.021516      0.008750      0.000000
H      8.91702      3.11463      7.50000        -0.021516     -0.008750     -0.000000
H      3.11463      2.21238      7.50000        -0.008750      0.021516     -0.000000
H      8.01477      8.91702      7.50000         0.008750     -0.021516      0.000000
H      1.48518      6.35849      7.50000        -0.000013     -0.001971      0.000000
H      9.64422      4.77091      7.50000         0.000013      0.001971      0.000000
H      4.77091      1.48518      7.50000         0.001971     -0.000013     -0.000000
H      6.35849      9.64422      7.50000        -0.001971      0.000013      0.000000
H      4.18054      9.01669      7.50000        -0.007811      0.002231     -0.000000
H      6.94886      2.11271      7.50000         0.007811     -0.002231      0.000000
H      2.11271      4.18054      7.50000        -0.002231     -0.007811      0.000000
H      9.01669      6.94886      7.50000         0.002231      0.007811     -0.000000
C      8.51295      0.92828      7.50000        -0.036734      0.022153      0.000000
C      2.61645     10.20112      7.50000         0.036734     -0.022153     -0.000000
C     10.20112      8.51295      7.50000        -0.022153     -0.036734      0.000000
C      0.92828      2.61645      7.50000         0.022153      0.036734     -0.000000
C      9.20039     10.76220      7.50000        -0.015941     -0.009018      0.000000
C      1.92901      0.36720      7.50000         0.015941      0.009018     -0.000000
C      0.36720      9.20039      7.50000         0.009018     -0.015941     -0.000000
C     10.76220      1.92901      7.50000        -0.009018      0.015941      0.000000
C      9.37286      2.10500      7.50000         0.014808      0.008463      0.000000
C      1.75654      9.02440      7.50000        -0.014808     -0.008463     -0.000000
C      9.02440      9.37286      7.50000        -0.008463      0.014808      0.000000
C      2.10500      1.75654      7.50000         0.008463     -0.014808     -0.000000
N      3.96612     10.02044      7.50000         0.006482      0.003582      0.000000
N      7.16328      1.10896      7.50000        -0.006482     -0.003582     -0.000000
N      1.10896      3.96612      7.50000        -0.003582      0.006482      0.000000
N     10.02044      7.16328      7.50000         0.003582     -0.006482     -0.000000
Ir      0.00000     -0.00000      7.50000        -0.000000      0.000000     -0.000000
Ir      5.56470     -0.00000      7.50000        -0.000000      0.000000     -0.000000
Ir      0.00000      5.56470      7.50000        -0.000000      0.000000     -0.000000
