152
# total energy = -1022.44394219 eVH     10.35389      5.87395      7.64558         0.423688     -0.060240      1.068385
H     10.62451     15.10445      7.64558         0.035967     -0.078428      0.613476
H     10.62451      5.87395     13.33282         0.133641      0.109422     -0.634108
H     10.35389     15.10445     13.33282        -0.256498     -0.066980     -0.556170
H      7.64558     10.35389      5.87395         0.393592     -0.055281      0.186053
H      7.64558     10.62451     15.10445         0.626657     -0.125768     -0.101489
H     13.33282     10.62451      5.87395        -1.032940     -0.477972     -0.047786
H     13.33282     10.35389     15.10445        -0.476875     -0.061246     -0.049238
H      5.87395      7.64558     10.35389         0.030380      1.259054     -0.089929
H     15.10445      7.64558     10.62451        -0.166736      0.394616     -0.076323
H      5.87395     13.33282     10.62451         0.145413     -0.385918     -0.066102
H     15.10445     13.33282     10.35389        -0.078116     -1.007497     -0.328335
H      5.87395     10.35389      7.64558         0.118130     -0.016902      0.400602
H     15.10445     10.62451      7.64558         0.090227     -0.075561      0.804014
H      5.87395     10.62451     13.33282         0.263272     -0.060090     -0.423352
H     15.10445     10.35389     13.33282        -0.186956      0.056576     -0.624144
H     10.35389      7.64558      5.87395         0.191828      0.940977      0.028511
H     10.62451      7.64558     15.10445        -0.005887      0.730798     -0.101165
H     10.62451     13.33282      5.87395         0.354682     -0.492482      0.199507
H     10.35389     13.33282     15.10445        -0.167111     -0.941988     -0.121503
H      7.64558      5.87395     10.35389         0.470701      0.064030     -0.153273
H      7.64558     15.10445     10.62451         0.911488     -0.198192      0.207807
H     13.33282      5.87395     10.62451        -0.426909      0.194399     -0.066401
H     13.33282     15.10445     10.35389        -1.005342     -0.049529      0.265960
H     12.45634     12.45634     19.01126         0.273034      0.258701     -0.218661
H     19.01126     19.01126     19.01126        -0.250216     -0.235717     -0.261387
H     19.01126     12.45634     12.45634        -0.243631      0.274486      0.234495
H     12.45634     19.01126     12.45634         0.206137     -0.284885      0.257920
C     10.35284      5.61067      6.59456        -0.049378     -0.497195     -0.793251
C     10.62556     15.36773      6.59456         0.027957      0.334034     -0.876735
C     10.62556      5.61067     14.38384        -0.010629     -0.286611      0.745011
C     10.35284     15.36773     14.38384         0.225197      0.695881      0.071380
C      6.59456     10.35284      5.61067        -0.614406     -0.032452     -0.260843
C      6.59456     10.62556     15.36773        -0.891710      0.124544      0.417074
C     14.38384     10.62556      5.61067         1.080091      0.285605     -0.295508
C     14.38384     10.35284     15.36773         0.756125     -0.111462      0.421960
C      5.61067      6.59456     10.35284        -0.376329     -0.932027      0.210601
C     15.36773      6.59456     10.62556         0.194491     -0.475748      0.040571
C      5.61067     14.38384     10.62556        -0.242010      0.382463     -0.007102
C     15.36773     14.38384     10.35284         0.312758      0.375110      0.257875
C      5.61067     10.35284      6.59456        -0.340576      0.014706     -0.808755
C     15.36773     10.62556      6.59456         0.537625     -0.174045     -1.198055
C      5.61067     10.62556     14.38384        -0.507245      0.010582      1.099304
C     15.36773     10.35284     14.38384         0.547022     -0.199826      1.357456
C     10.35284      6.59456      5.61067         0.001411     -1.168336     -0.725513
C     10.62556      6.59456     15.36773         0.060678     -0.931892      0.387230
C     10.62556     14.38384      5.61067        -0.048401      1.379168     -0.707077
C     10.35284     14.38384     15.36773         0.051363      0.666094      0.561196
C      6.59456      5.61067     10.35284        -0.040116     -0.895574      0.135743
C      6.59456     15.36773     10.62556        -1.707754      0.486852      0.067329
C     14.38384      5.61067     10.62556         0.553945     -0.225030      0.007778
C     14.38384     15.36773     10.35284         0.517181      0.504962     -0.225178
C     10.40319      3.19606      7.29314         0.017828      0.981931     -0.229389
C     10.35913      4.25547      6.23373        -0.028072     -0.286816      0.776657
C      0.08601      7.29314      7.29314        -0.011083     -0.224516     -0.464737
C      0.13007      6.23373      6.23373        -0.015883      0.154182      0.168769
C      0.08601      3.19606      3.19606        -0.023836      0.711605      0.146803
C      0.13007      4.25547      4.25547        -0.107233     -0.195522     -0.152075
C     10.40319      7.29314      3.19606        -0.003722     -0.645047      0.478918
C     10.35913      6.23373      4.25547        -0.000318      0.574176     -0.310169
C      7.29314     10.40319      3.19606        -0.406031      0.017871      0.932093
C      6.23373     10.35913      4.25547         0.244051     -0.012016     -0.190051
C      7.29314      0.08601      7.29314        -0.305603     -0.054503     -0.243305
C      6.23373      0.13007      6.23373         0.306488     -0.097054      0.239621
C      3.19606      0.08601      3.19606         0.322500     -0.059257      1.368008
C      4.25547      0.13007      4.25547        -0.212535     -0.014154     -0.438208
C      3.19606     10.40319      7.29314         0.753318      0.018320     -0.255212
C      4.25547     10.35913      6.23373        -0.114835      0.039895      0.122490
C      3.19606      7.29314     10.40319         0.518154     -1.230363      0.041196
C      4.25547      6.23373     10.35913        -0.763572      0.697904      0.025635
C      7.29314      7.29314      0.08601        -0.650165     -0.201419     -0.022566
C      6.23373      6.23373      0.13007         0.176578      0.253003     -0.010661
C      3.19606      3.19606      0.08601         0.262582      0.266025     -0.018003
C      4.25547      4.25547      0.13007        -0.054875     -0.035208      0.010439
C      7.29314      3.19606     10.40319        -0.335230      0.698253      0.030987
C      6.23373      4.25547     10.35913         0.688860     -0.227134      0.029171
O     10.43466      3.58206      8.50569        -0.054758      0.025072      0.279609
O     10.54374     17.39634      8.50569        -0.021536     -0.195969      0.618431
O     10.54374      3.58206     12.47271         0.068480      0.045447     -0.287295
O     10.43466     17.39634     12.47271        -0.024028     -0.128651     -0.552732
O      8.50569     10.43466      3.58206         0.383728     -0.008103     -0.018118
O      8.50569     10.54374     17.39634         0.463280      0.059095     -0.143777
O     12.47271     10.54374      3.58206        -0.206337      0.069608     -0.122216
O     12.47271     10.43466     17.39634        -0.850724      0.026814     -0.208673
O      3.58206      8.50569     10.43466         0.034381      0.880788      0.041042
O     17.39634      8.50569     10.54374        -0.026586      0.360153      0.080469
O      3.58206     12.47271     10.54374         0.059801     -0.433269      0.059402
O     17.39634     12.47271     10.43466        -0.154489     -0.710504      0.009880
O      3.58206     10.43466      8.50569        -0.053963     -0.061534      0.224638
O     17.39634     10.54374      8.50569        -0.136686      0.044625      0.440236
O      3.58206     10.54374     12.47271        -0.068301     -0.060417     -0.873761
O     17.39634     10.43466     12.47271        -0.197581      0.047927     -0.783099
O     10.43466      8.50569      3.58206         0.024174      0.669381      0.201771
O     10.54374      8.50569     17.39634         0.056042      0.393675     -0.068523
O     10.54374     12.47271      3.58206        -0.051082     -0.739281      0.249484
O     10.43466     12.47271     17.39634         0.063604     -0.845446     -0.279010
O      8.50569      3.58206     10.43466         0.492992      0.093368     -0.040973
O      8.50569     17.39634     10.54374         0.660694     -0.230617     -0.057418
O     12.47271      3.58206     10.54374        -0.516921      0.157519      0.039893
O     12.47271     17.39634     10.43466        -0.466526     -0.028896     -0.045982
O     11.90042     11.90042     19.56718        -0.309571     -0.310860      0.257476
O     19.56718     19.56718     19.56718         0.292834      0.275569      0.320840
O     19.56718     11.90042     11.90042         0.279634     -0.331019     -0.230309
O     11.90042     19.56718     11.90042        -0.220265      0.294704     -0.242703
O      9.45224      1.03696      9.45224        -0.070330      0.061407     -0.067236
O      1.03696      9.45224      9.45224         0.069777     -0.143104     -0.051219
O      1.03696      1.03696      1.03696         0.044676      0.029750      0.190913
O      9.45224      9.45224      1.03696        -0.035406     -0.085614      0.136792
Zr     10.48920      2.52580     10.48920         0.000927     -0.068390     -0.026047
Zr     10.48920     18.45260     10.48920         0.029556      0.288546     -0.062795
Zr     10.48920     10.48920      2.52580        -0.058748     -0.034199     -0.365253
Zr     10.48920     10.48920     18.45260        -0.154936     -0.204410      0.300143
Zr      2.52580     10.48920     10.48920        -0.325136      0.350947     -0.488255
Zr     18.45260     10.48920     10.48920         0.214478      0.041175     -0.315780
Pd      9.03039     10.27109     13.49317         0.017463      0.010312     -0.040822
Pd     10.63419      9.72779     11.27704         0.008909     -0.007647     -0.070186
Pd     13.76737      8.52830     12.81853         0.003320      0.009902     -0.019696
Pd     11.01848     11.14498     15.10930        -0.003204     -0.017593     -0.008916
Pd     12.81226     11.14216     13.04305         0.006668      0.022396      0.010367
Pd     15.01666     10.78533     11.38893        -0.029494      0.044311     -0.020210
Pd      6.66798      7.40142     12.31378         0.011261      0.005270      0.001308
Pd      9.31917      7.37619     10.25132        -0.040071     -0.053285     -0.011744
Pd      9.23466      7.63946     12.92325         0.014760      0.006666     -0.020496
Pd     11.72067      7.26948     11.64295         0.001252     -0.009753     -0.029273
Pd     11.55245      7.77534      8.95997        -0.090727      0.082719     -0.016582
Pd      7.20710     11.84325     12.07824         0.011864     -0.009941     -0.025124
Pd      8.94347     14.65420      9.33546        -0.029880     -0.003178     -0.002518
Pd      8.45434     12.74576     14.35058        -0.017004     -0.019893      0.001558
Pd     13.18431     13.94229      8.70543         0.059035      0.004817     -0.016523
Pd     10.76224     13.04851      8.44178         0.023685      0.061818      0.003371
Pd     14.05992     11.41998      9.03251        -0.019906     -0.007808     -0.040314
Pd      8.66054     14.09351     12.06308        -0.023819     -0.000262      0.013471
Pd     12.23009     13.74022     13.96899         0.002267      0.011192      0.011164
Pd     11.17827     14.35269     11.02887        -0.026130      0.023119      0.016081
Pd     14.04440     13.40797     12.11911         0.016517      0.041754      0.021986
Pd     12.22833     12.04043     10.67161         0.035854      0.031635      0.010065
Pd     12.47030     11.91092      6.89722         0.016505      0.085889     -0.067630
Pd     13.58360      9.01975      7.87176        -0.003884     -0.048640      0.007618
Pd      6.96813      8.38656      8.97783        -0.041642      0.030183     -0.025323
Pd      5.50860      9.86938     11.35700         0.012017     -0.002465     -0.009291
Pd      8.87018      9.95450      8.01386         0.066944     -0.030478      0.088158
Pd      9.09144      7.42469      7.59460        -0.077930     -0.037157     -0.021864
Pd      9.39030     11.98176     10.45149         0.035396      0.017483     -0.009349
Pd     11.29050     10.42147      8.82442         0.084880      0.091550     -0.037935
Pd     11.08231      9.36767      6.46914         0.004194      0.000997     -0.004347
Pd      9.68491     11.74891      6.23807         0.004611     -0.017560      0.018831
Ir     11.36971      9.06406     13.60084         0.005165      0.009903     -0.045830
Ir     13.06291      9.36698     10.46320         0.006351      0.000156     -0.015166
Ir     10.51697     12.32870     12.70106         0.005903      0.020038      0.008337
Ir      7.02858     10.96362      9.60738         0.000225      0.001322     -0.003752
Ir      8.17403     12.47682      8.20857         0.039052     -0.004787     -0.003611
Ir      8.08611      9.36537     11.21523         0.008167     -0.006615     -0.031925
