152
# total energy = -1110.39255058 eVH     10.35389      5.87395      7.64558        -0.386603     -0.130301      1.146814
H     10.62451     15.10445      7.64558         0.328591      0.077789      0.920177
H     10.62451      5.87395     13.33282        -0.318958     -0.676683     -1.339697
H     10.35389     15.10445     13.33282        -0.586471      0.427840     -0.333588
H      7.64558     10.35389      5.87395         0.557955     -0.521529     -0.100979
H      7.64558     10.62451     15.10445         0.385601     -0.234402      0.043620
H     13.33282     10.62451      5.87395        -0.579261      0.646557     -0.048082
H     13.33282     10.35389     15.10445        -0.525661      0.387886      0.153890
H      5.87395      7.64558     10.35389         0.149280      0.555786      0.028055
H     15.10445      7.64558     10.62451         0.428540      1.020818      0.283267
H      5.87395     13.33282     10.62451        -0.220984     -0.503323      0.362118
H     15.10445     13.33282     10.35389         0.027813     -0.299288     -0.379803
H      5.87395     10.35389      7.64558        -0.103451     -0.411255      1.487149
H     15.10445     10.62451      7.64558         0.219373      0.513659      1.326435
H      5.87395     10.62451     13.33282        -0.217647     -0.370300     -1.205835
H     15.10445     10.35389     13.33282         0.612206      1.000829     -1.533813
H     10.35389      7.64558      5.87395        -0.583932      0.529643     -0.172969
H     10.62451      7.64558     15.10445        -0.134087      0.451334      0.158128
H     10.62451     13.33282      5.87395         0.870108     -1.330070     -0.313099
H     10.35389     13.33282     15.10445         0.225810     -0.562866     -0.105894
H      7.64558      5.87395     10.35389         0.720189      0.163941     -0.173225
H      7.64558     15.10445     10.62451         1.980629      0.750062      0.223071
H     13.33282      5.87395     10.62451        -2.655102     -0.905906     -0.514435
H     13.33282     15.10445     10.35389        -0.877635     -0.056239     -0.252475
H     12.45634     12.45634     19.01126         0.271964      0.257911     -0.227337
H     19.01126     19.01126     19.01126        -0.266779     -0.254744     -0.238697
H     19.01126     12.45634     12.45634        -0.284047      0.281745      0.184937
H     12.45634     19.01126     12.45634         0.256448     -0.250603      0.235795
C     10.35284      5.61067      6.59456         0.076364     -0.484256     -1.203942
C     10.62556     15.36773      6.59456         0.191572      0.754161     -0.811298
C     10.62556      5.61067     14.38384         0.180965     -0.295921      1.785626
C     10.35284     15.36773     14.38384         0.085504      0.383664      1.792230
C      6.59456     10.35284      5.61067        -1.138510     -0.110365     -0.895517
C      6.59456     10.62556     15.36773        -0.702110     -0.095149      0.794904
C     14.38384     10.62556      5.61067         0.838690     -0.111339     -0.990621
C     14.38384     10.35284     15.36773         1.178503      0.168444      1.098994
C      5.61067      6.59456     10.35284        -0.668468     -0.900415     -0.188399
C     15.36773      6.59456     10.62556         2.008291     -0.321410     -0.187946
C      5.61067     14.38384     10.62556        -1.568188     -0.012751     -0.141818
C     15.36773     14.38384     10.35284         0.484791      0.089930      0.000474
C      5.61067     10.35284      6.59456        -0.274714      0.212620     -1.353484
C     15.36773     10.62556      6.59456         0.295420     -0.265188     -0.981308
C      5.61067     10.62556     14.38384        -0.255808      0.446899      1.458686
C     15.36773     10.35284     14.38384         0.005348     -0.487209      1.944693
C     10.35284      6.59456      5.61067        -0.159997     -0.848175     -0.697855
C     10.62556      6.59456     15.36773        -0.118271     -0.716254      1.045761
C     10.62556     14.38384      5.61067        -0.501608      1.988170     -0.754104
C     10.35284     14.38384     15.36773        -0.259956      1.360136      0.502233
C      6.59456      5.61067     10.35284        -0.988331     -0.409936      0.094177
C      6.59456     15.36773     10.62556        -1.257360      0.369372     -0.333135
C     14.38384      5.61067     10.62556         1.270913     -1.299750      0.214656
C     14.38384     15.36773     10.35284         0.458124      0.310891      0.085860
C     10.40319      3.19606      7.29314         0.001118      0.305109     -0.111152
C     10.35913      4.25547      6.23373         0.142078     -0.575374      0.016317
C      0.08601      7.29314      7.29314        -0.053393     -0.280182     -0.420082
C      0.13007      6.23373      6.23373        -0.123420      0.670435      0.017498
C      0.08601      3.19606      3.19606        -0.105728      1.662400      0.165923
C      0.13007      4.25547      4.25547        -0.096831     -0.392367     -1.207605
C     10.40319      7.29314      3.19606         0.015797     -0.449240      0.121735
C     10.35913      6.23373      4.25547         0.263812      0.086650     -0.534816
C      7.29314     10.40319      3.19606        -1.696561      0.011004      0.324734
C      6.23373     10.35913      4.25547         0.670058      0.081147     -0.623055
C      7.29314      0.08601      7.29314        -0.410598     -0.015245     -0.317226
C      6.23373      0.13007      6.23373         0.726118     -0.058268      0.246224
C      3.19606      0.08601      3.19606         0.661087     -0.018277      0.180150
C      4.25547      0.13007      4.25547        -0.357600     -0.085331     -0.570415
C      3.19606     10.40319      7.29314         0.350482      0.023387     -0.319429
C      4.25547     10.35913      6.23373        -0.740899      0.078303      0.362807
C      3.19606      7.29314     10.40319         0.285265     -0.202547     -0.006533
C      4.25547      6.23373     10.35913         0.042454      0.633346      0.091654
C      7.29314      7.29314      0.08601        -0.716015     -0.609988     -0.027429
C      6.23373      6.23373      0.13007         0.901462      1.125065     -0.065552
C      3.19606      3.19606      0.08601         0.823897      0.514358      0.001482
C      4.25547      4.25547      0.13007        -0.326933     -1.766544     -0.130000
C      7.29314      3.19606     10.40319        -0.324940      0.271063     -0.004497
C      6.23373      4.25547     10.35913         0.508123     -0.020905      0.230917
O     10.43466      3.58206      8.50569        -0.048618      0.186996      0.259761
O     10.54374     17.39634      8.50569         0.042245     -0.236365      0.486754
O     10.54374      3.58206     12.47271         0.083899     -0.075377     -0.022891
O     10.43466     17.39634     12.47271        -0.023158     -0.141715     -0.268868
O      8.50569     10.43466      3.58206         0.992992      0.189873      0.377068
O      8.50569     10.54374     17.39634         0.579646      0.084448     -0.229526
O     12.47271     10.54374      3.58206        -0.413791     -0.040891      0.181977
O     12.47271     10.43466     17.39634        -0.506673     -0.067570     -0.192948
O      3.58206      8.50569     10.43466         0.184433      0.423397     -0.028771
O     17.39634      8.50569     10.54374        -0.230500      0.712712      0.046289
O      3.58206     12.47271     10.54374         0.162188     -0.682163      0.026307
O     17.39634     12.47271     10.43466        -0.186742     -0.474946     -0.010331
O      3.58206     10.43466      8.50569         0.231111     -0.061691      0.406091
O     17.39634     10.54374      8.50569        -0.171927      0.037395      0.412681
O      3.58206     10.54374     12.47271         0.148308      0.021480     -0.303809
O     17.39634     10.43466     12.47271         0.081226     -0.051635     -0.070521
O     10.43466      8.50569      3.58206         0.004886      0.273451      0.183655
O     10.54374      8.50569     17.39634         0.069620      0.426619     -0.174258
O     10.54374     12.47271      3.58206        -0.222047     -0.974833      0.330063
O     10.43466     12.47271     17.39634        -0.082221     -0.450861     -0.245202
O      8.50569      3.58206     10.43466         0.489029      0.197450     -0.009904
O      8.50569     17.39634     10.54374         0.664916     -0.203538      0.022339
O     12.47271      3.58206     10.54374        -0.747220      0.280691      0.038152
O     12.47271     17.39634     10.43466        -0.432405     -0.205956     -0.043550
O     11.90042     11.90042     19.56718        -0.347215     -0.307212      0.261026
O     19.56718     19.56718     19.56718         0.324152      0.311709      0.284229
O     19.56718     11.90042     11.90042         0.274526     -0.273622     -0.138203
O     11.90042     19.56718     11.90042        -0.305291      0.283126     -0.233094
O      9.45224      1.03696      9.45224        -0.061348      0.073279     -0.045042
O      1.03696      9.45224      9.45224         0.035795     -0.075614     -0.070002
O      1.03696      1.03696      1.03696         0.063650      0.150116      0.095479
O      9.45224      9.45224      1.03696        -0.143424     -0.098556      0.095834
Zr     10.48920      2.52580     10.48920         0.164154     -0.173420     -0.167920
Zr     10.48920     18.45260     10.48920        -0.101505      0.187632     -0.050960
Zr     10.48920     10.48920      2.52580         0.344209     -0.310373     -0.205203
Zr     10.48920     10.48920     18.45260         0.014975     -0.088600      0.199896
Zr      2.52580     10.48920     10.48920        -0.071960      0.179932     -0.052408
Zr     18.45260     10.48920     10.48920         0.147100     -0.132840     -0.252848
Ir     12.03789     12.48351     10.45471         0.008145     -0.006649     -0.015613
Ir     11.21934      7.41334     10.24208         0.009515     -0.003329     -0.015583
Ir      8.85752      7.34856     11.52190         0.003782     -0.011961     -0.012279
Ir      7.46069     11.64755      7.65744        -0.005919      0.004786      0.000361
Ir     11.59580     12.07166      7.11188         0.000130     -0.004121     -0.000815
Ir     13.78553      8.99323      7.52118         0.009265      0.005706     -0.015799
Ir     12.47077     13.95225      8.40649        -0.004850     -0.006922     -0.001319
Ir      9.74029     11.25421      5.53854         0.004817     -0.003840     -0.005090
Ir      9.07419     13.44143      7.07695        -0.005833     -0.010988      0.006436
Ir      9.26527      9.67335      7.49841        -0.000498      0.007637     -0.015329
Ir     13.28633      7.03533     11.95968        -0.000447     -0.001646      0.004844
Ir     13.64017      7.04253      9.10650         0.022867     -0.007595      0.006750
Ir     11.04532      7.59031     12.79758         0.000817     -0.002534     -0.015995
Ir     13.59752     11.56444      8.75048        -0.007664      0.002111      0.001475
Ir     11.50212      9.62070      6.21791        -0.005452     -0.009864     -0.003515
Ir      7.16195      9.14509      8.91879        -0.005289     -0.007386     -0.007963
Ir     14.06057     11.44004     11.64595         0.000618     -0.003821     -0.006306
Ir     11.66154      9.82462      8.85864        -0.001697     -0.007575     -0.014424
Ir      9.44435      9.49834     10.22383         0.007724      0.005062     -0.000014
Ir     13.88041      9.41319     10.16570         0.006620      0.005093     -0.002691
Ir     13.83882      9.16298     12.87800         0.006133     -0.001652     -0.011909
Ir     11.70354      9.75793     11.53650         0.005532     -0.001623     -0.002114
Ir      9.91735     11.72740      8.96159         0.004072     -0.002218     -0.004066
Ir      9.11201      7.43417      8.76664         0.013301     -0.006302     -0.023404
Ir     11.64120      7.52041      7.71904         0.017616     -0.017306     -0.024068
Ir      9.25603      9.46505     13.00211         0.004811      0.002422     -0.005041
Ir      7.50517     13.89876      8.99444         0.002105     -0.005984     -0.003193
Ir     10.86224     14.09754     11.95200        -0.010595      0.006300      0.009180
Ir     10.11059     14.14405      9.51494        -0.002168     -0.006974     -0.006633
Ir      9.79071     11.67727     11.72246        -0.010960     -0.018995      0.005877
Ir      7.59065     11.55991     10.20562         0.004242     -0.002476     -0.000137
Ir      8.34324     13.73206     11.58158        -0.004224     -0.005287     -0.000717
Ir      7.52524     11.53937     12.82094         0.006270     -0.008101     -0.005762
Ir      9.77923     11.58824     14.34200         0.008659     -0.014367     -0.006443
Ir     13.46378     13.88374     12.18556         0.003442      0.006650     -0.002388
Ir     11.98979     12.04214     13.07605        -0.005811     -0.021428      0.007713
Ir     11.58699      9.77732     14.17594         0.002143     -0.005191     -0.017239
Ir      7.15859      9.34395     11.47725        -0.002119     -0.004621     -0.002172
