32
# total energy = -216.20850930 eVH      4.24011     -1.04865     10.00000        -0.000159      0.012967      0.000000
H      6.78370      7.41325     10.00000         0.000159     -0.012967     -0.000000
H      9.81191     -2.16824     10.00000        -0.011125     -0.007650     -0.000000
H      1.21190      8.53284     10.00000         0.011125      0.007650     -0.000000
H      7.99560      3.21688     10.00000         0.011396     -0.006138     -0.000000
H      3.02821      3.14772     10.00000        -0.011396      0.006138      0.000000
H      1.21190      4.19637     10.00000         0.011151     -0.006621     -0.000000
H      9.81191      2.16823     10.00000        -0.011151      0.006621     -0.000000
H      3.02821      9.58148     10.00000        -0.012187     -0.005809      0.000000
H      7.99560     -3.21688     10.00000         0.012187      0.005809      0.000000
H      6.78370      5.31595     10.00000         0.000383      0.012938     -0.000000
H      4.24011      1.04865     10.00000        -0.000383     -0.012938      0.000000
C      4.82248     -1.97654     10.00000        -0.081426     -0.036214     -0.000000
C      6.20133      8.34114     10.00000         0.081426      0.036214      0.000000
C     10.32435     -1.20001     10.00000         0.070562     -0.047188     -0.000000
C      0.69947      7.56461     10.00000        -0.070562      0.047188     -0.000000
C      6.90085      3.17648     10.00000         0.007288      0.089157     -0.000000
C      4.12296      3.18812     10.00000        -0.007288     -0.089157     -0.000000
C      0.69951      5.16466     10.00000        -0.072075     -0.052410     -0.000000
C     10.32430      1.19994     10.00000         0.072075      0.052410     -0.000000
C      4.12293      9.54115     10.00000        -0.005585      0.084703     -0.000000
C      6.90088     -3.17655     10.00000         0.005585     -0.084703      0.000000
C      6.20133      4.38807     10.00000         0.080856     -0.038267      0.000000
C      4.82248      1.97653     10.00000        -0.080856      0.038267     -0.000000
C      6.23126     -1.93632     10.00000        -0.001487     -0.008839     -0.000000
C      4.79256      8.30092     10.00000         0.001487      0.008839      0.000000
C      9.58509      0.00001     10.00000         0.008398     -0.003131      0.000000
C      1.43872      6.36459     10.00000        -0.008398      0.003131      0.000000
C      6.23128      1.93630     10.00000        -0.003643      0.006310     -0.000000
C      4.79253      4.42830     10.00000         0.003643     -0.006310     -0.000000
Zr      3.67457      6.36466     10.00000         0.000560     -0.000969     -0.000000
Zr      7.34924     -0.00006     10.00000        -0.000560      0.000969     -0.000000
