14
# total energy = -118.03735646 eVC      2.49692      8.11255     -0.00000         0.187828      0.192424      0.000000
C      4.84533      8.11255      0.00000        -0.187828      0.192424     -0.000000
C      2.39791      1.43529      0.00000        -0.187828     -0.192424     -0.000000
C      0.04950      1.43529      0.00000         0.187828     -0.192424      0.000000
C      1.96626      2.81257     -0.00000        -0.155117     -0.207275      0.000000
C      0.48116      2.81257      0.00000         0.155117     -0.207275      0.000000
C      2.92857      6.73527      0.00000         0.155117      0.207275      0.000000
C      4.41367      6.73527     -0.00000        -0.155117      0.207275      0.000000
C      1.22371      8.73941     -0.00000         0.000000     -0.924052     -0.000000
C      3.67112      0.80843     -0.00000         0.000000      0.924052      0.000000
C      1.22371      0.59329     -0.00000         0.000000      1.265041      0.000000
C      3.67112      8.95455     -0.00000         0.000000     -1.265041      0.000000
Ir      2.44741      4.77392     -0.00000         0.000000      0.000000      0.000000
Ir     -0.00000      4.77392     -0.00000         0.000000      0.000000      0.000000
