32
# total energy = -214.27871229 eVH      3.81217     -0.83840     10.00000         0.003597     -0.002851     -0.000000
H      6.39031      6.72880     10.00000        -0.003597      0.002851     -0.000000
H      9.02244     -2.16982     10.00000         0.001914      0.007909      0.000000
H      1.18003      8.06022     10.00000        -0.001914     -0.007909      0.000000
H      7.57037      3.00816     10.00000        -0.007332     -0.001949     -0.000000
H      2.63210      2.88224     10.00000         0.007332      0.001949     -0.000000
H      1.18011      3.72058     10.00000        -0.001122      0.005669     -0.000000
H      9.02236      2.16982     10.00000         0.001122     -0.005669     -0.000000
H      2.63210      8.89846     10.00000         0.007135     -0.002055     -0.000000
H      7.57037     -3.00806     10.00000        -0.007135      0.002055      0.000000
H      6.39033      5.05206     10.00000        -0.005361     -0.005252      0.000000
H      3.81214      0.83834     10.00000         0.005361      0.005252     -0.000000
C      4.41464     -1.74249     10.00000        -0.010764      0.000423     -0.000000
C      5.78783      7.63289     10.00000         0.010764     -0.000423      0.000000
C      9.50418     -1.19589     10.00000         0.006532     -0.018951      0.000000
C      0.69829      7.08629     10.00000        -0.006532      0.018951     -0.000000
C      6.48607      2.93845     10.00000         0.012249      0.006549      0.000000
C      3.71640      2.95195     10.00000        -0.012249     -0.006549     -0.000000
C      0.69835      4.69440     10.00000        -0.005229     -0.008278     -0.000000
C      9.50412      1.19600     10.00000         0.005229      0.008278      0.000000
C      3.71640      8.82874     10.00000        -0.011932      0.014422      0.000000
C      6.48607     -2.93834     10.00000         0.011932     -0.014422     -0.000000
C      5.78781      4.14787     10.00000         0.011642      0.007473     -0.000000
C      4.41466      1.74253     10.00000        -0.011642     -0.007473      0.000000
C      5.81700     -1.70549     10.00000        -0.007136     -0.002313     -0.000000
C      4.38547      7.59589     10.00000         0.007136      0.002313      0.000000
C      8.77099     -0.00008     10.00000         0.005088      0.006666     -0.000000
C      1.43148      5.89048     10.00000        -0.005088     -0.006666     -0.000000
C      5.81699      1.70547     10.00000        -0.003648      0.006441     -0.000000
C      4.38548      4.18493     10.00000         0.003648     -0.006441     -0.000000
Ir      3.40083      5.89040     10.00000        -0.000337      0.000659     -0.000000
Ir      6.80165      0.00000     10.00000         0.000337     -0.000659     -0.000000
