152
# total energy = -1005.89066287 eVH     10.35389      5.87395      7.64558         0.172697      0.083330      0.568601
H     10.62451     15.10445      7.64558        -0.107705     -0.151156      0.508028
H     10.62451      5.87395     13.33282         0.501039      0.111102     -0.607246
H     10.35389     15.10445     13.33282         0.050029     -0.175964     -0.479595
H      7.64558     10.35389      5.87395         0.358616      0.030648      0.171338
H      7.64558     10.62451     15.10445         0.726802      0.496239     -0.044177
H     13.33282     10.62451      5.87395        -0.467413      0.353512      0.112126
H     13.33282     10.35389     15.10445        -0.812034     -0.068978     -0.000814
H      5.87395      7.64558     10.35389         0.275393      1.082742      0.025101
H     15.10445      7.64558     10.62451        -0.103308      0.482338      0.284446
H      5.87395     13.33282     10.62451         0.156008     -0.681566     -0.162543
H     15.10445     13.33282     10.35389        -0.049919     -0.995714     -0.249685
H      5.87395     10.35389      7.64558         0.228747      0.027346      0.471248
H     15.10445     10.62451      7.64558        -0.133683      0.455957      0.792728
H      5.87395     10.62451     13.33282         0.143570      0.354130     -0.734728
H     15.10445     10.35389     13.33282        -0.076084     -0.041496     -0.673136
H     10.35389      7.64558      5.87395         0.333335      1.112076      0.048743
H     10.62451      7.64558     15.10445         0.622678      0.608059     -0.135852
H     10.62451     13.33282      5.87395        -0.403140     -0.797360      0.238745
H     10.35389     13.33282     15.10445        -0.058999     -0.460300     -0.255601
H      7.64558      5.87395     10.35389         0.930501      0.053910     -0.252915
H      7.64558     15.10445     10.62451         0.827384     -0.186776     -0.019442
H     13.33282      5.87395     10.62451        -0.775917      0.190283      0.567756
H     13.33282     15.10445     10.35389        -0.398702     -0.112353     -0.114507
H     12.45634     12.45634     19.01126         0.240651      0.268431     -0.238223
H     19.01126     19.01126     19.01126        -0.262974     -0.244004     -0.257035
H     19.01126     12.45634     12.45634        -0.270166      0.265636      0.223268
H     12.45634     19.01126     12.45634         0.233646     -0.262215      0.270422
C     10.35284      5.61067      6.59456        -0.351487     -0.690272     -0.033233
C     10.62556     15.36773      6.59456         0.086668      0.355120     -0.272109
C     10.62556      5.61067     14.38384        -0.258204     -0.446905     -0.237173
C     10.35284     15.36773     14.38384         0.004736      0.244693      0.465767
C      6.59456     10.35284      5.61067        -0.358813      0.002037     -0.255850
C      6.59456     10.62556     15.36773        -0.350428     -0.143833      0.717307
C     14.38384     10.62556      5.61067        -0.233297     -0.436084     -0.574160
C     14.38384     10.35284     15.36773         0.975722     -0.077105      0.190275
C      5.61067      6.59456     10.35284        -0.572886     -0.050557     -0.307244
C     15.36773      6.59456     10.62556         0.562520      0.001218     -0.261087
C      5.61067     14.38384     10.62556        -0.321822      0.974141      0.065728
C     15.36773     14.38384     10.35284         0.279109      1.006065      0.050721
C      5.61067     10.35284      6.59456        -0.244759     -0.039068     -0.674210
C     15.36773     10.62556      6.59456         0.440934     -0.274972      0.132558
C      5.61067     10.62556     14.38384        -0.632759     -0.291156     -0.056097
C     15.36773     10.35284     14.38384         0.403360     -0.049784      1.027372
C     10.35284      6.59456      5.61067        -0.221013     -0.572801     -0.564122
C     10.62556      6.59456     15.36773        -0.200235      0.017513      0.503183
C     10.62556     14.38384      5.61067         0.214860      1.043935     -0.333516
C     10.35284     14.38384     15.36773         0.000102      0.703135      0.386684
C      6.59456      5.61067     10.35284        -0.111580     -1.013276      0.235161
C      6.59456     15.36773     10.62556        -0.997326      0.255580      0.092765
C     14.38384      5.61067     10.62556         0.392636     -0.529672     -0.372661
C     14.38384     15.36773     10.35284         0.182592      0.415464     -0.068570
C     10.40319      3.19606      7.29314         0.012352      0.736671     -0.494026
C     10.35913      4.25547      6.23373         0.080291     -0.577852      0.066373
C      0.08601      7.29314      7.29314        -0.050000     -0.485445     -0.308423
C      0.13007      6.23373      6.23373        -0.036628      0.109036      0.578907
C      0.08601      3.19606      3.19606         0.005490      1.365414      0.293353
C      0.13007      4.25547      4.25547         0.047171     -0.735759     -0.199782
C     10.40319      7.29314      3.19606         0.009584     -0.313426      0.284487
C     10.35913      6.23373      4.25547         0.021689      0.034023     -0.736298
C      7.29314     10.40319      3.19606        -0.249330      0.018813      0.568180
C      6.23373     10.35913      4.25547         0.156986      0.051232     -0.067746
C      7.29314      0.08601      7.29314        -0.593054     -0.067693     -0.353797
C      6.23373      0.13007      6.23373         0.711373     -0.092688      0.472849
C      3.19606      0.08601      3.19606         0.939868     -0.022060      0.592505
C      4.25547      0.13007      4.25547        -0.595607     -0.074081     -0.536079
C      3.19606     10.40319      7.29314         0.478356     -0.010874     -0.780745
C      4.25547     10.35913      6.23373        -0.283676      0.073678      0.203549
C      3.19606      7.29314     10.40319         0.294177     -1.280977      0.034032
C      4.25547      6.23373     10.35913        -0.962204      0.079263      0.126438
C      7.29314      7.29314      0.08601        -0.416132     -0.390500     -0.021406
C      6.23373      6.23373      0.13007         0.467340      0.236127     -0.003082
C      3.19606      3.19606      0.08601         0.478768      0.385455     -0.040354
C      4.25547      4.25547      0.13007        -0.150626     -0.644087     -0.032074
C      7.29314      3.19606     10.40319        -0.354340      0.434468      0.063143
C      6.23373      4.25547     10.35913         0.300150     -0.699537      0.144638
O     10.43466      3.58206      8.50569        -0.009224      0.093233      0.495209
O     10.54374     17.39634      8.50569         0.042746     -0.157195      0.478661
O     10.54374      3.58206     12.47271         0.038309     -0.112008     -0.179308
O     10.43466     17.39634     12.47271        -0.036093     -0.181580     -0.515192
O      8.50569     10.43466      3.58206         0.263513     -0.019833      0.011355
O      8.50569     10.54374     17.39634         0.663019      0.014295     -0.155389
O     12.47271     10.54374      3.58206        -0.826760      0.098855      0.102339
O     12.47271     10.43466     17.39634        -0.434414      0.027697     -0.085413
O      3.58206      8.50569     10.43466         0.153028      1.041408     -0.022911
O     17.39634      8.50569     10.54374        -0.160628      0.553126      0.074804
O      3.58206     12.47271     10.54374         0.089869     -0.389975      0.054095
O     17.39634     12.47271     10.43466        -0.151919     -0.532641     -0.026062
O      3.58206     10.43466      8.50569         0.080223     -0.074895      0.618557
O     17.39634     10.54374      8.50569        -0.090936      0.077337      0.504633
O      3.58206     10.54374     12.47271        -0.004135      0.035458     -0.484273
O     17.39634     10.43466     12.47271        -0.237754     -0.041282     -0.650104
O     10.43466      8.50569      3.58206        -0.037146      0.444125      0.141695
O     10.54374      8.50569     17.39634         0.025941      0.571906     -0.158047
O     10.54374     12.47271      3.58206         0.036718     -1.048056      0.156375
O     10.43466     12.47271     17.39634         0.040960     -0.734356     -0.185662
O      8.50569      3.58206     10.43466         0.540297      0.154911     -0.058584
O      8.50569     17.39634     10.54374         0.496885     -0.193437      0.012619
O     12.47271      3.58206     10.54374        -0.620442      0.213280      0.000301
O     12.47271     17.39634     10.43466        -0.242072      0.058807     -0.042988
O     11.90042     11.90042     19.56718        -0.247742     -0.286647      0.242329
O     19.56718     19.56718     19.56718         0.312555      0.299607      0.292638
O     19.56718     11.90042     11.90042         0.304271     -0.263103     -0.237538
O     11.90042     19.56718     11.90042        -0.238252      0.299848     -0.315673
O      9.45224      1.03696      9.45224        -0.009449      0.090458     -0.088759
O      1.03696      9.45224      9.45224         0.089132     -0.080397     -0.140142
O      1.03696      1.03696      1.03696         0.099096      0.186458      0.050083
O      9.45224      9.45224      1.03696        -0.101872     -0.104851      0.033457
Zr     10.48920      2.52580     10.48920        -0.126602     -0.279901     -0.003294
Zr     10.48920     18.45260     10.48920        -0.074506      0.198754      0.075949
Zr     10.48920     10.48920      2.52580        -0.095246     -0.407038     -0.255321
Zr     10.48920     10.48920     18.45260        -0.236680     -0.116991      0.342721
Zr      2.52580     10.48920     10.48920        -0.373887      0.222430      0.254916
Zr     18.45260     10.48920     10.48920         0.210099     -0.000311     -0.185489
Pd     13.60185      8.92708      9.24686        -0.006754      0.000008      0.002808
Pd      5.64649      9.87485     10.11033         0.005721     -0.005311      0.027141
Pd      6.75645     11.82297     11.67022         0.022834     -0.019093      0.009565
Pd     12.18105     13.06937      7.32332        -0.016449     -0.012189     -0.001891
Pd     11.97411      7.82152      7.37268        -0.014487     -0.015221      0.005719
Pd      8.29048      7.02356      6.57877         0.001285     -0.017898     -0.003099
Pd     10.86512     11.22885      5.60143        -0.042383     -0.013253      0.007405
Pd     14.51692      8.53748      6.77551        -0.020562      0.006186     -0.003019
Pd      9.67124     11.78787      8.01494         0.007020     -0.007687      0.021182
Pd      6.86095      6.80339     12.27148        -0.060838     -0.006392      0.015928
Pd      6.40157      7.70520      8.26223         0.017575      0.031652     -0.008920
Pd      6.65087      8.56343     14.23224        -0.042622     -0.013272      0.021080
Pd     11.49699      6.49263      9.72479         0.014399      0.005251      0.024614
Pd      9.64977      9.28097      7.02642        -0.022795     -0.011010      0.029285
Pd      9.00987     13.98265      9.34079        -0.001738      0.012255     -0.014631
Pd      9.56697      7.32574     11.71322         0.029618     -0.010292     -0.007093
Pd     10.53025      8.96871      9.64312         0.016002      0.004653      0.005078
Pd      9.31658     11.44193     10.61215         0.003299      0.019985      0.013196
Pd      8.88025      7.00978      9.14920         0.011726      0.005017     -0.001009
Pd      8.59668      6.65704     14.23631        -0.000820     -0.007741     -0.041652
Pd      7.74243      9.32899     11.83004         0.007131     -0.041898      0.024795
Pd     11.98019     10.46073      7.82759         0.004152     -0.015033     -0.017954
Pd      7.13746     12.03687      9.03097         0.001833     -0.000811      0.008541
Pd      8.04938      9.57002      9.10835         0.008097      0.001906      0.052146
Pd     14.04697      6.46672      8.49376         0.001138      0.003712     -0.003031
Pd     12.44710      8.26543     11.54659         0.022347      0.015824      0.015122
Pd      8.73897     11.53994     13.38516         0.015395      0.016973     -0.000535
Pd     13.91974     11.93841      9.00751        -0.005528      0.005283     -0.007908
Pd     12.89292     10.60231     13.06642         0.017960      0.015111     -0.004432
Pd     14.77390     10.39537     11.13026         0.003930      0.006491     -0.010342
Pd     12.07778     10.79940     10.54834         0.000571      0.018860     -0.005124
Pd     11.45544     13.22382      9.85518         0.000540      0.025156      0.006885
Pd     13.58132     12.85890     11.65136         0.008200      0.011106     -0.004882
Pd     11.07140     12.56808     12.45321         0.017147      0.011879      0.013023
Pd     10.97392     11.20678     14.82375        -0.002685     -0.034920     -0.006885
Pd     10.44925      9.72302     12.41848         0.015930      0.013821     -0.013071
Pd      9.20436      9.21206     14.59827        -0.051254     -0.007292     -0.063398
Pd      8.75512     13.76568     11.98512         0.022486      0.020215     -0.006402
