38
# total energy = -255.12908076 eVH      1.22542      6.94179      7.50000        -0.009504      0.017813      0.000000
H      8.09891      6.77119      7.50000         0.007511     -0.007311      0.000000
H      4.45929     13.86612      7.50000         0.000415     -0.005652      0.000000
H     12.67439      2.18133      7.50000         0.009504     -0.017813      0.000000
H      5.80090      2.35193      7.50000        -0.007511      0.007311      0.000000
H      9.44052     -4.74300      7.50000        -0.000415      0.005652      0.000000
H      5.81434     -2.34416      7.50000        -0.000520     -0.024541      0.000000
H      9.44189      4.72777      7.50000        -0.017376     -0.006077      0.000000
H     12.66444     -2.17414      7.50000         0.002956      0.000508      0.000000
H      8.08547     11.46728      7.50000         0.000520      0.024541      0.000000
H      4.45793      4.39536      7.50000         0.017376      0.006077     -0.000000
H      1.23537     11.29726      7.50000        -0.002956     -0.000508      0.000000
C      7.73754     -3.36892      7.50000        -0.031729     -0.017878      0.000000
C     12.48207      0.00351      7.50000         0.012179      0.001126      0.000000
C      7.73016      3.36360      7.50000        -0.009530      0.018554      0.000000
C      6.16227     12.49204      7.50000         0.031729      0.017878      0.000000
C      1.41774      9.11962      7.50000        -0.012179     -0.001126      0.000000
C      6.16966      5.75952      7.50000         0.009530     -0.018554      0.000000
C     13.20742     -1.22697      7.50000         0.005377      0.015456      0.000000
C      8.35159      4.64325      7.50000         0.002948     -0.008121     -0.000000
C      6.31558     -3.31550      7.50000        -0.009225      0.009212     -0.000000
C      0.69239     10.35009      7.50000        -0.005377     -0.015456     -0.000000
C      5.54822      4.47987      7.50000        -0.002948      0.008121     -0.000000
C      7.58423     12.43862      7.50000         0.009225     -0.009212     -0.000000
C      5.54854     13.77511      7.50000         0.006579      0.002777     -0.000000
C      7.59134      5.80373      7.50000         0.011099     -0.000244      0.000000
C      0.68731      7.89233      7.50000         0.005746      0.009890      0.000000
C      8.35127     -4.65199      7.50000        -0.006579     -0.002777     -0.000000
C      6.30847      3.31939      7.50000        -0.011099      0.000244      0.000000
C     13.21251      1.23079      7.50000        -0.005746     -0.009890     -0.000000
N      5.85042      9.13039      7.50000         0.025193      0.008174      0.000000
N      8.04939     -0.00727      7.50000        -0.025193     -0.008174      0.000000
Ir      8.77389      1.64676      7.50000         0.003817      0.024705      0.000000
Ir      8.78489     -1.65697      7.50000         0.003170     -0.021097     -0.000000
Ir     10.54980      0.00090      7.50000        -0.011967      0.002220      0.000000
Ir      5.12592      7.47636      7.50000        -0.003817     -0.024705     -0.000000
Ir      5.11492     10.78009      7.50000        -0.003170      0.021097      0.000000
Ir      3.35001      9.12222      7.50000         0.011967     -0.002220      0.000000
