35
# total energy = -301.58058655 eVC      6.68521     10.29419      7.65134         0.004315      0.004370      0.002976
C      8.07144      9.94024      7.58016         0.007119     -0.004898     -0.005042
C      9.41816      5.70804      7.64984         0.011126     -0.005364      0.004579
C      1.46348      5.34953      7.66835        -0.014365      0.006144      0.003541
C      4.19659      0.76322      7.63410        -0.000902     -0.003324      0.000940
C      2.81034      1.11720      7.56524        -0.007927      0.003259     -0.002165
C      0.70657      4.16677      7.64481        -0.005677     -0.004711      0.002851
C      1.09510      2.79021      7.57174         0.005191     -0.009905     -0.003787
C      5.36030      1.54949      7.64638         0.006499     -0.011234      0.003482
C      5.52126      9.50818      7.67073        -0.002859      0.013867      0.007423
C     10.17553      6.89063      7.64262         0.002102      0.005449      0.000132
C      9.78734      8.26761      7.57472        -0.007059      0.010565     -0.001775
C      0.77539      6.57812      7.64835         0.007887      0.011842      0.000741
C      1.25710      7.92688      7.58050         0.022843     -0.000392     -0.005067
C     10.10648      4.47939      7.64274        -0.009172     -0.010346     -0.002080
C      9.62535      3.13081      7.56941        -0.024592      0.001908     -0.006012
C      4.27574     10.16548      7.65101        -0.010456     -0.006519      0.002953
C      2.93912      9.65070      7.58144         0.006167     -0.021908     -0.005352
C      6.60590      0.89208      7.63799         0.010686      0.006917     -0.001716
C      7.94246      1.40666      7.56754        -0.001755      0.021136     -0.008637
N      8.81051      0.31492      7.47971        -0.009135      0.010541     -0.004718
N      0.14470      8.76766      7.48768         0.012360     -0.008640     -0.003397
N      8.53572      8.70004      7.59873        -0.001707     -0.004745      0.009372
N      2.34661      2.35742      7.59136         0.004902      0.003325      0.009849
N      2.07120     10.74215      7.48949         0.009583     -0.010847     -0.001905
N     10.73862      2.29035      7.48295        -0.011427      0.007905     -0.003141
N      2.56900      8.32932      7.60000         0.028889     -0.026082      0.003613
N      8.31321      2.72809      7.58356        -0.027599      0.026682     -0.000741
O      5.32946      2.87844      7.62542         0.003502     -0.004770     -0.010951
O      5.55245      8.17909      7.67731        -0.004567      0.006582      0.004732
O      8.08898      5.70629      7.62277         0.006282     -0.003933     -0.005053
O      2.79282      5.35145      7.67799        -0.004976      0.000989      0.005046
Zr      6.53864      4.45885      7.59320         0.001075     -0.004166     -0.020243
Zr      4.34396      6.59790      7.68171        -0.003423      0.002103      0.015490
Zr      0.02645     10.81037      6.85164        -0.002930     -0.001800      0.014065
