8
# total energy = -53.45738754 eVC      1.14292     13.17206      0.00000         0.000000      0.078644      0.000000
C      1.14292      4.11414     -0.00000         0.000000     -0.078644      0.000000
O      1.14292      5.29925      0.00000         0.000000      0.498420      0.000000
O      1.14292     11.98695     -0.00000         0.000000     -0.498420      0.000000
O     -0.00000     13.93840      0.00000        -0.000000      0.320771     -0.000000
O      0.00000      3.34780     -0.00000         0.000000     -0.320771      0.000000
Ir     -0.00000      8.64310      0.00000         0.000000      0.000000      0.000000
Ir     -0.00000      0.00000      0.00000         0.000000      0.000000      0.000000
