152
# total energy = -1022.86215254 eVH     10.35389      5.87395      7.64558         0.472821      0.025162      0.886159
H     10.62451     15.10445      7.64558        -0.044577      0.044801      0.768213
H     10.62451      5.87395     13.33282         0.144907      0.115925     -0.608345
H     10.35389     15.10445     13.33282        -0.247175     -0.082624     -0.554863
H      7.64558     10.35389      5.87395         0.330733     -0.034952      0.189806
H      7.64558     10.62451     15.10445         0.618163     -0.192660     -0.142469
H     13.33282     10.62451      5.87395        -0.843022     -0.320730      0.170869
H     13.33282     10.35389     15.10445        -0.446617     -0.079250     -0.068863
H      5.87395      7.64558     10.35389         0.132487      1.106916     -0.170557
H     15.10445      7.64558     10.62451        -0.170577      0.403578     -0.086028
H      5.87395     13.33282     10.62451         0.143328     -0.408239     -0.072672
H     15.10445     13.33282     10.35389        -0.077356     -0.969537     -0.188383
H      5.87395     10.35389      7.64558         0.128966      0.040568      0.483966
H     15.10445     10.62451      7.64558         0.110167     -0.201392      0.824539
H      5.87395     10.62451     13.33282         0.266360     -0.030423     -0.393409
H     15.10445     10.35389     13.33282        -0.156343      0.016435     -0.618686
H     10.35389      7.64558      5.87395         0.064225      0.881746      0.109880
H     10.62451      7.64558     15.10445         0.025931      0.550511     -0.144206
H     10.62451     13.33282      5.87395         0.054789     -0.595858      0.181279
H     10.35389     13.33282     15.10445        -0.252324     -0.897779     -0.112586
H      7.64558      5.87395     10.35389         0.525813      0.045841     -0.133474
H      7.64558     15.10445     10.62451         0.923990     -0.205998      0.289511
H     13.33282      5.87395     10.62451        -0.438386      0.185982     -0.059534
H     13.33282     15.10445     10.35389        -1.016294     -0.102193      0.262654
H     12.45634     12.45634     19.01126         0.266252      0.257330     -0.225091
H     19.01126     19.01126     19.01126        -0.247182     -0.235235     -0.262129
H     19.01126     12.45634     12.45634        -0.240111      0.270960      0.239338
H     12.45634     19.01126     12.45634         0.210984     -0.282583      0.252965
C     10.35284      5.61067      6.59456        -0.110686     -0.447383     -0.381862
C     10.62556     15.36773      6.59456         0.020182      0.353574     -1.150955
C     10.62556      5.61067     14.38384        -0.030403     -0.218884      0.729068
C     10.35284     15.36773     14.38384         0.171765      0.774214      0.157260
C      6.59456     10.35284      5.61067        -0.410141     -0.040626     -0.178622
C      6.59456     10.62556     15.36773        -0.785491      0.152682      0.348809
C     14.38384     10.62556      5.61067         0.597203      0.290848     -0.369135
C     14.38384     10.35284     15.36773         0.718099     -0.119038      0.427387
C      5.61067      6.59456     10.35284        -0.423679     -0.733745      0.284105
C     15.36773      6.59456     10.62556         0.198324     -0.462828      0.047358
C      5.61067     14.38384     10.62556        -0.256514      0.380795     -0.025507
C     15.36773     14.38384     10.35284         0.404785      0.155550      0.190107
C      5.61067     10.35284      6.59456        -0.309485     -0.016725     -0.891806
C     15.36773     10.62556      6.59456         0.578201     -0.164439     -1.233727
C      5.61067     10.62556     14.38384        -0.455329      0.007188      0.886605
C     15.36773     10.35284     14.38384         0.518859     -0.182347      1.252282
C     10.35284      6.59456      5.61067        -0.035764     -0.942061     -0.664681
C     10.62556      6.59456     15.36773         0.043846     -0.654008      0.291603
C     10.62556     14.38384      5.61067         0.047410      1.234943     -0.693211
C     10.35284     14.38384     15.36773         0.109193      0.615263      0.642575
C      6.59456      5.61067     10.35284        -0.211372     -0.885772      0.130074
C      6.59456     15.36773     10.62556        -1.722564      0.490723      0.042115
C     14.38384      5.61067     10.62556         0.587055     -0.229232     -0.007939
C     14.38384     15.36773     10.35284         0.171277      0.554152     -0.243589
C     10.40319      3.19606      7.29314         0.014852      0.894830     -0.253423
C     10.35913      4.25547      6.23373        -0.056171     -0.368416      0.605117
C      0.08601      7.29314      7.29314        -0.008811     -0.239793     -0.468283
C      0.13007      6.23373      6.23373         0.001607      0.118328      0.206786
C      0.08601      3.19606      3.19606        -0.016772      0.648538      0.185423
C      0.13007      4.25547      4.25547        -0.089088     -0.199149     -0.168468
C     10.40319      7.29314      3.19606        -0.002740     -0.690456      0.524503
C     10.35913      6.23373      4.25547        -0.013302      0.497246     -0.418981
C      7.29314     10.40319      3.19606        -0.340077      0.023166      0.878024
C      6.23373     10.35913      4.25547         0.212669      0.011926     -0.145300
C      7.29314      0.08601      7.29314        -0.308275     -0.045932     -0.278412
C      6.23373      0.13007      6.23373         0.269982     -0.057968      0.295837
C      3.19606      0.08601      3.19606         0.440956     -0.051674      1.298117
C      4.25547      0.13007      4.25547        -0.116523     -0.026669     -0.462140
C      3.19606     10.40319      7.29314         0.698071      0.014110     -0.266148
C      4.25547     10.35913      6.23373        -0.133977      0.029498      0.102711
C      3.19606      7.29314     10.40319         0.606031     -1.269400      0.024358
C      4.25547      6.23373     10.35913        -0.717047      0.839551      0.050692
C      7.29314      7.29314      0.08601        -0.648030     -0.173408     -0.021898
C      6.23373      6.23373      0.13007         0.171607      0.270690     -0.008171
C      3.19606      3.19606      0.08601         0.241521      0.252214     -0.019487
C      4.25547      4.25547      0.13007        -0.055991     -0.037499      0.012366
C      7.29314      3.19606     10.40319        -0.371117      0.806042      0.015608
C      6.23373      4.25547     10.35913         0.877078     -0.164432      0.010290
O     10.43466      3.58206      8.50569        -0.049575      0.036416      0.324821
O     10.54374     17.39634      8.50569        -0.023390     -0.180637      0.600889
O     10.54374      3.58206     12.47271         0.054777      0.060674     -0.324384
O     10.43466     17.39634     12.47271        -0.023124     -0.126432     -0.583310
O      8.50569     10.43466      3.58206         0.375412     -0.025214     -0.017921
O      8.50569     10.54374     17.39634         0.470475      0.052888     -0.142386
O     12.47271     10.54374      3.58206        -0.287785      0.048645     -0.075486
O     12.47271     10.43466     17.39634        -0.850347      0.019635     -0.226080
O      3.58206      8.50569     10.43466         0.042697      0.922660      0.039253
O     17.39634      8.50569     10.54374        -0.041448      0.341311      0.078038
O      3.58206     12.47271     10.54374         0.063655     -0.420861      0.064171
O     17.39634     12.47271     10.43466        -0.170149     -0.783487      0.020853
O      3.58206     10.43466      8.50569        -0.054588     -0.065867      0.227562
O     17.39634     10.54374      8.50569        -0.136577      0.043659      0.463289
O      3.58206     10.54374     12.47271        -0.020468     -0.050745     -0.890207
O     17.39634     10.43466     12.47271        -0.197894      0.046080     -0.772808
O     10.43466      8.50569      3.58206         0.044673      0.677377      0.189647
O     10.54374      8.50569     17.39634         0.053463      0.438142     -0.080835
O     10.54374     12.47271      3.58206        -0.008132     -0.734389      0.226136
O     10.43466     12.47271     17.39634         0.047211     -0.845114     -0.272465
O      8.50569      3.58206     10.43466         0.488452      0.073100     -0.038260
O      8.50569     17.39634     10.54374         0.648463     -0.250192     -0.059517
O     12.47271      3.58206     10.54374        -0.484063      0.163600      0.039663
O     12.47271     17.39634     10.43466        -0.527127     -0.036246     -0.029261
O     11.90042     11.90042     19.56718        -0.304124     -0.312123      0.264974
O     19.56718     19.56718     19.56718         0.286431      0.272712      0.321218
O     19.56718     11.90042     11.90042         0.277550     -0.330611     -0.243905
O     11.90042     19.56718     11.90042        -0.229085      0.290408     -0.241069
O      9.45224      1.03696      9.45224        -0.074920      0.048077     -0.066534
O      1.03696      9.45224      9.45224         0.054117     -0.144703     -0.058347
O      1.03696      1.03696      1.03696         0.041887      0.034152      0.187926
O      9.45224      9.45224      1.03696        -0.041545     -0.091224      0.123501
Zr     10.48920      2.52580     10.48920        -0.005782     -0.074589     -0.025247
Zr     10.48920     18.45260     10.48920         0.056981      0.303465     -0.073961
Zr     10.48920     10.48920      2.52580        -0.095760      0.011849     -0.373259
Zr     10.48920     10.48920     18.45260        -0.133323     -0.152243      0.327758
Zr      2.52580     10.48920     10.48920        -0.354827      0.315717     -0.463113
Zr     18.45260     10.48920     10.48920         0.247652      0.032024     -0.271101
Pd      9.03651     10.25356     13.32728        -0.009242     -0.010157      0.003164
Pd     10.57697      9.72117     10.96455         0.007116     -0.001068     -0.025606
Pd     13.77048      8.53522     12.69395         0.001270     -0.001230     -0.011181
Pd     11.00330     11.07122     15.00992        -0.004831     -0.015009     -0.003196
Pd     12.85845     11.17200     13.00198         0.017759      0.006060      0.010896
Pd     14.99744     10.93617     11.34590         0.001761      0.018886     -0.013670
Pd      6.65250      7.43973     12.34283        -0.008278      0.022700      0.002006
Pd      9.23282      7.26483     10.11237         0.007725      0.014191     -0.031545
Pd      9.26897      7.60212     12.78955         0.002878     -0.011089     -0.019714
Pd     11.70306      7.28845     11.46641         0.000723      0.001313     -0.018556
Pd     11.41717      7.99233      8.86464         0.027538      0.001029     -0.015558
Pd      7.25954     11.83431     11.95408         0.006702     -0.000577     -0.010550
Pd      8.89602     14.67040      9.32661         0.035377      0.010248      0.020224
Pd      8.41756     12.65050     14.32103        -0.002750     -0.006786     -0.001427
Pd     13.52158     14.10266      8.56113         0.077466      0.021587     -0.037736
Pd     10.98229     13.33370      8.51442         0.068680      0.032290      0.030766
Pd     14.10344     11.53446      8.93369        -0.001172      0.018079     -0.012710
Pd      8.61969     14.10476     12.10127         0.011105     -0.009560      0.002514
Pd     12.24269     13.71105     14.03029        -0.005815      0.002338      0.002124
Pd     11.15183     14.43250     11.14409         0.030268     -0.013728      0.047583
Pd     14.05043     13.55122     12.16873        -0.011098      0.019555     -0.001714
Pd     12.30377     12.15034     10.66579         0.005364     -0.020221      0.010758
Pd     12.68253     12.34445      6.71441         0.021331      0.035673     -0.016658
Pd     13.68436      8.94024      7.94196         0.032409      0.001846     -0.001919
Pd      6.87142      8.47001      8.84669         0.006595      0.007737     -0.005699
Pd      5.52521      9.94249     11.25439         0.006215      0.021528     -0.045425
Pd      9.16308      9.75282      8.31853         0.026168     -0.025720     -0.014369
Pd      8.82796      7.25928      7.44695        -0.026120     -0.019751     -0.026720
Pd      9.52253     12.08327     10.41856         0.027890      0.003771      0.012436
Pd     11.55806     10.70839      8.55747         0.017840      0.009028     -0.025592
Pd     11.26308      9.21849      6.44260         0.038295     -0.020180     -0.015040
Pd      9.92333     11.53695      6.37397         0.035083     -0.021121     -0.001477
Ir     11.35044      9.10736     13.34580        -0.001904      0.004625     -0.018899
Ir     13.07848      9.49332     10.40542         0.012554      0.007206     -0.012149
Ir     10.52996     12.35290     12.70447        -0.005018     -0.016312      0.005209
Ir      7.14899     10.98704      9.50189         0.043186      0.004120     -0.019044
Ir      8.41735     12.45343      8.17037         0.051070      0.014218     -0.013200
Ir      8.06333      9.29563     11.11306         0.004817      0.006075     -0.003885
