32
# total energy = -214.27828955 eVH      3.81218     -0.83843     10.00000         0.008300     -0.005937      0.000000
H      6.39029      6.72883     10.00000        -0.008300      0.005937      0.000000
H      9.02241     -2.16988     10.00000         0.006334      0.023514     -0.000000
H      1.18006      8.06028     10.00000        -0.006334     -0.023514      0.000000
H      7.57043      3.00815     10.00000        -0.022003     -0.004392      0.000000
H      2.63205      2.88225     10.00000         0.022003      0.004392     -0.000000
H      1.18010      3.72061     10.00000        -0.002224      0.012615      0.000000
H      9.02237      2.16979     10.00000         0.002224     -0.012615     -0.000000
H      2.63204      8.89846     10.00000         0.021760     -0.005783      0.000000
H      7.57043     -3.00806     10.00000        -0.021760      0.005783     -0.000000
H      6.39035      5.05211     10.00000        -0.014824     -0.016751     -0.000000
H      3.81213      0.83829     10.00000         0.014824      0.016751     -0.000000
C      4.41470     -1.74267     10.00000        -0.030747      0.011351      0.000000
C      5.78778      7.63307     10.00000         0.030747     -0.011351     -0.000000
C      9.50428     -1.19545     10.00000         0.011357     -0.073865     -0.000000
C      0.69819      7.08585     10.00000        -0.011357      0.073865     -0.000000
C      6.48566      2.93859     10.00000         0.053883      0.009345      0.000000
C      3.71681      2.95181     10.00000        -0.053883     -0.009345     -0.000000
C      0.69819      4.69458     10.00000        -0.003935     -0.031047      0.000000
C      9.50429      1.19582     10.00000         0.003935      0.031047      0.000000
C      3.71680      8.82869     10.00000        -0.052752      0.039526     -0.000000
C      6.48567     -2.93829     10.00000         0.052752     -0.039526      0.000000
C      5.78772      4.14746     10.00000         0.034620      0.042139      0.000000
C      4.41475      1.74294     10.00000        -0.034620     -0.042139      0.000000
C      5.81629     -1.70696     10.00000         0.020132      0.073598     -0.000000
C      4.38618      7.59736     10.00000        -0.020132     -0.073598     -0.000000
C      8.77266     -0.00029     10.00000        -0.076911      0.028563      0.000000
C      1.42982      5.89069     10.00000         0.076911     -0.028563     -0.000000
C      5.81627      1.70673     10.00000         0.029716     -0.051556     -0.000000
C      4.38620      4.18367     10.00000        -0.029716      0.051556     -0.000000
Ir      3.40088      5.89030     10.00000        -0.004037      0.007084     -0.000000
Ir      6.80159      0.00010     10.00000         0.004037     -0.007084     -0.000000
