35
# total energy = -301.58143506 eVC      6.68666     10.29537      7.65263         0.002577      0.000502      0.002048
C      8.07368      9.94379      7.58018        -0.000207     -0.005553      0.001755
C      9.41816      5.70949      7.65042         0.000147      0.003448     -0.001566
C      1.46291      5.34783      7.66922        -0.002603     -0.005166      0.005111
C      4.19579      0.76228      7.63555        -0.003129      0.003061      0.000483
C      2.80858      1.11361      7.56589        -0.002157      0.004908      0.001405
C      0.70490      4.16530      7.64579         0.003015     -0.004292      0.001240
C      1.09119      2.78771      7.57232         0.006395      0.001287      0.001784
C      5.35926      1.54954      7.64647        -0.004231     -0.000729     -0.002721
C      5.52295      9.50855      7.67249         0.005864      0.000825      0.006240
C     10.17670      6.89182      7.64340        -0.004533      0.003440      0.001013
C      9.79105      8.26978      7.57538        -0.005367      0.002893     -0.000403
C      0.77654      6.57724      7.64836         0.003944     -0.008946      0.001920
C      1.26153      7.92431      7.57945        -0.004710      0.004397      0.000149
C     10.10485      4.48004      7.64262        -0.001877      0.010299      0.001541
C      9.62061      3.13319      7.56781         0.007786     -0.002421     -0.002276
C      4.27703     10.16460      7.65229         0.006328     -0.002514      0.002031
C      2.94233      9.64658      7.58075        -0.003482      0.005811      0.001014
C      6.60534      0.89323      7.63806        -0.011719      0.000987     -0.000609
C      7.93991      1.41069      7.56533         0.004394     -0.007809     -0.004123
N      8.80997      0.32043      7.47660        -0.010249     -0.009053      0.001553
N      0.15061      8.76710      7.48638        -0.007653     -0.008730      0.001694
N      8.53987      8.70409      7.60168         0.003370      0.002828     -0.004910
N      2.34246      2.35322      7.59468        -0.004473     -0.005226     -0.005108
N      2.07243     10.73639      7.48778         0.009992      0.008263      0.004627
N     10.73247      2.29063      7.48115         0.009876      0.011650      0.002704
N      2.57431      8.32446      7.60024         0.002928     -0.002679     -0.004579
N      8.30789      2.73280      7.58227        -0.001506      0.003180     -0.009948
O      5.32865      2.87868      7.62092         0.002006      0.001923     -0.010135
O      5.55317      8.17924      7.67974        -0.000994     -0.003594      0.010462
O      8.08880      5.70756      7.62114        -0.003625     -0.001538     -0.008169
O      2.79244      5.34988      7.68036         0.006344      0.002383      0.008757
Zr      6.53700      4.46072      7.58371         0.010603     -0.014512     -0.022138
Zr      4.34416      6.59730      7.68888        -0.009421      0.009991      0.016212
Zr      0.02699     10.81031      6.85261        -0.003635      0.000686      0.002942
