152
# total energy = -1022.83927320 eVH     10.35389      5.87395      7.64558         0.477468      0.030127      0.916318
H     10.62451     15.10445      7.64558        -0.041634      0.037039      0.760729
H     10.62451      5.87395     13.33282         0.142687      0.116234     -0.603398
H     10.35389     15.10445     13.33282        -0.267282     -0.076562     -0.566549
H      7.64558     10.35389      5.87395         0.335052     -0.038066      0.191144
H      7.64558     10.62451     15.10445         0.615651     -0.185826     -0.140831
H     13.33282     10.62451      5.87395        -0.863039     -0.327446      0.165609
H     13.33282     10.35389     15.10445        -0.468476     -0.093676     -0.057391
H      5.87395      7.64558     10.35389         0.122105      1.131766     -0.142141
H     15.10445      7.64558     10.62451        -0.168168      0.402549     -0.086139
H      5.87395     13.33282     10.62451         0.143604     -0.407040     -0.071175
H     15.10445     13.33282     10.35389        -0.077481     -0.967215     -0.202676
H      5.87395     10.35389      7.64558         0.129688      0.037482      0.482245
H     15.10445     10.62451      7.64558         0.131813     -0.221088      0.800171
H      5.87395     10.62451     13.33282         0.270347     -0.028587     -0.395367
H     15.10445     10.35389     13.33282        -0.144816      0.009841     -0.627805
H     10.35389      7.64558      5.87395         0.072814      0.835239      0.118451
H     10.62451      7.64558     15.10445         0.027915      0.558066     -0.143242
H     10.62451     13.33282      5.87395         0.075169     -0.601892      0.182886
H     10.35389     13.33282     15.10445        -0.250369     -0.891449     -0.110344
H      7.64558      5.87395     10.35389         0.528430      0.036193     -0.139623
H      7.64558     15.10445     10.62451         0.909041     -0.210518      0.303658
H     13.33282      5.87395     10.62451        -0.435594      0.187462     -0.058947
H     13.33282     15.10445     10.35389        -0.999438     -0.099775      0.243045
H     12.45634     12.45634     19.01126         0.267615      0.257746     -0.224049
H     19.01126     19.01126     19.01126        -0.247510     -0.234979     -0.262508
H     19.01126     12.45634     12.45634        -0.241472      0.270361      0.238777
H     12.45634     19.01126     12.45634         0.210899     -0.283515      0.252865
C     10.35284      5.61067      6.59456        -0.130281     -0.427204     -0.429539
C     10.62556     15.36773      6.59456         0.020656      0.347484     -1.141143
C     10.62556      5.61067     14.38384        -0.024615     -0.222813      0.720780
C     10.35284     15.36773     14.38384         0.192107      0.771447      0.131829
C      6.59456     10.35284      5.61067        -0.425944     -0.041278     -0.185068
C      6.59456     10.62556     15.36773        -0.786673      0.147477      0.350021
C     14.38384     10.62556      5.61067         0.651320      0.279923     -0.366037
C     14.38384     10.35284     15.36773         0.744351     -0.123566      0.430870
C      5.61067      6.59456     10.35284        -0.428181     -0.772491      0.266785
C     15.36773      6.59456     10.62556         0.195207     -0.469209      0.046544
C      5.61067     14.38384     10.62556        -0.254835      0.381899     -0.022891
C     15.36773     14.38384     10.35284         0.400556      0.146114      0.192288
C      5.61067     10.35284      6.59456        -0.307753     -0.011938     -0.891098
C     15.36773     10.62556      6.59456         0.565400     -0.145296     -1.234390
C      5.61067     10.62556     14.38384        -0.464153      0.007634      0.907704
C     15.36773     10.35284     14.38384         0.531462     -0.177045      1.253477
C     10.35284      6.59456      5.61067        -0.034092     -0.913960     -0.679558
C     10.62556      6.59456     15.36773         0.043233     -0.666949      0.300456
C     10.62556     14.38384      5.61067         0.041107      1.263438     -0.694611
C     10.35284     14.38384     15.36773         0.091188      0.595989      0.666738
C      6.59456      5.61067     10.35284        -0.228445     -0.895401      0.127768
C      6.59456     15.36773     10.62556        -1.730554      0.496228      0.042427
C     14.38384      5.61067     10.62556         0.578626     -0.222352     -0.006926
C     14.38384     15.36773     10.35284         0.172748      0.550347     -0.243590
C     10.40319      3.19606      7.29314         0.017281      0.926383     -0.253990
C     10.35913      4.25547      6.23373        -0.052321     -0.362155      0.626588
C      0.08601      7.29314      7.29314        -0.008901     -0.236257     -0.470739
C      0.13007      6.23373      6.23373         0.001132      0.116317      0.205082
C      0.08601      3.19606      3.19606        -0.016717      0.650698      0.179129
C      0.13007      4.25547      4.25547        -0.090580     -0.197946     -0.170516
C     10.40319      7.29314      3.19606        -0.000551     -0.693107      0.526616
C     10.35913      6.23373      4.25547        -0.004900      0.526756     -0.382167
C      7.29314     10.40319      3.19606        -0.348529      0.022802      0.851613
C      6.23373     10.35913      4.25547         0.212932      0.015570     -0.144995
C      7.29314      0.08601      7.29314        -0.309099     -0.046628     -0.269087
C      6.23373      0.13007      6.23373         0.265032     -0.059307      0.293784
C      3.19606      0.08601      3.19606         0.433956     -0.052546      1.302345
C      4.25547      0.13007      4.25547        -0.117032     -0.027601     -0.459958
C      3.19606     10.40319      7.29314         0.714916      0.015196     -0.263122
C      4.25547     10.35913      6.23373        -0.137548      0.034902      0.110254
C      3.19606      7.29314     10.40319         0.600386     -1.262278      0.026857
C      4.25547      6.23373     10.35913        -0.718379      0.832703      0.047965
C      7.29314      7.29314      0.08601        -0.660471     -0.170311     -0.022609
C      6.23373      6.23373      0.13007         0.172673      0.269471     -0.009665
C      3.19606      3.19606      0.08601         0.241746      0.251200     -0.019634
C      4.25547      4.25547      0.13007        -0.051898     -0.037204      0.012366
C      7.29314      3.19606     10.40319        -0.372777      0.785205      0.016537
C      6.23373      4.25547     10.35913         0.869858     -0.163894      0.012582
O     10.43466      3.58206      8.50569        -0.050330      0.028158      0.315153
O     10.54374     17.39634      8.50569        -0.024178     -0.182745      0.604684
O     10.54374      3.58206     12.47271         0.055584      0.060579     -0.321967
O     10.43466     17.39634     12.47271        -0.024473     -0.123764     -0.579834
O      8.50569     10.43466      3.58206         0.385831     -0.023319     -0.011389
O      8.50569     10.54374     17.39634         0.470333      0.053785     -0.142604
O     12.47271     10.54374      3.58206        -0.282065      0.049899     -0.079771
O     12.47271     10.43466     17.39634        -0.857265      0.021598     -0.223538
O      3.58206      8.50569     10.43466         0.040779      0.914956      0.038701
O     17.39634      8.50569     10.54374        -0.038189      0.337530      0.078227
O      3.58206     12.47271     10.54374         0.064198     -0.420411      0.063409
O     17.39634     12.47271     10.43466        -0.169674     -0.772104      0.018926
O      3.58206     10.43466      8.50569        -0.057243     -0.066317      0.223041
O     17.39634     10.54374      8.50569        -0.136098      0.042315      0.458052
O      3.58206     10.54374     12.47271        -0.022081     -0.051266     -0.891485
O     17.39634     10.43466     12.47271        -0.197832      0.041840     -0.761870
O     10.43466      8.50569      3.58206         0.044443      0.686060      0.192809
O     10.54374      8.50569     17.39634         0.054080      0.430618     -0.078119
O     10.54374     12.47271      3.58206        -0.009751     -0.731868      0.228383
O     10.43466     12.47271     17.39634         0.051084     -0.860903     -0.276231
O      8.50569      3.58206     10.43466         0.493980      0.078007     -0.039011
O      8.50569     17.39634     10.54374         0.657585     -0.253511     -0.061723
O     12.47271      3.58206     10.54374        -0.487145      0.163429      0.039788
O     12.47271     17.39634     10.43466        -0.525803     -0.038846     -0.030589
O     11.90042     11.90042     19.56718        -0.304468     -0.311867      0.263064
O     19.56718     19.56718     19.56718         0.287464      0.271729      0.321087
O     19.56718     11.90042     11.90042         0.280477     -0.330347     -0.244152
O     11.90042     19.56718     11.90042        -0.228003      0.291241     -0.240940
O      9.45224      1.03696      9.45224        -0.074350      0.049894     -0.066527
O      1.03696      9.45224      9.45224         0.057106     -0.145263     -0.056527
O      1.03696      1.03696      1.03696         0.043725      0.032783      0.187607
O      9.45224      9.45224      1.03696        -0.039439     -0.091805      0.122796
Zr     10.48920      2.52580     10.48920        -0.007384     -0.074723     -0.022155
Zr     10.48920     18.45260     10.48920         0.059579      0.306332     -0.070879
Zr     10.48920     10.48920      2.52580        -0.100740      0.010225     -0.374392
Zr     10.48920     10.48920     18.45260        -0.139055     -0.163748      0.327782
Zr      2.52580     10.48920     10.48920        -0.346858      0.316999     -0.466206
Zr     18.45260     10.48920     10.48920         0.237842      0.038925     -0.263354
Pd      9.04369     10.27001     13.34364        -0.011824     -0.005230     -0.000502
Pd     10.58267      9.72619     10.99701         0.013684     -0.000584     -0.071348
Pd     13.76159      8.55383     12.67958         0.030410     -0.002602      0.004919
Pd     11.00037     11.08385     15.04104        -0.002237     -0.036972     -0.056213
Pd     12.86619     11.20001     13.04618         0.022669      0.015905      0.002693
Pd     14.97655     10.93282     11.34419        -0.000030      0.019356     -0.008645
Pd      6.66381      7.43589     12.33588        -0.004860      0.020616      0.007615
Pd      9.21885      7.26666     10.14158         0.000696      0.009645     -0.022040
Pd      9.27419      7.62186     12.80798        -0.000149     -0.006936     -0.014176
Pd     11.69768      7.29502     11.46821         0.005645      0.007360     -0.011210
Pd     11.37642      7.99776      8.85993         0.036593      0.001485      0.005055
Pd      7.26072     11.83997     11.96556         0.002785     -0.001490     -0.024792
Pd      8.90607     14.67770      9.34036         0.039191      0.031616      0.021672
Pd      8.41686     12.66863     14.33104         0.006840     -0.017427     -0.032726
Pd     13.51129     14.07712      8.56489         0.095862      0.039174     -0.039443
Pd     10.97629     13.33021      8.52240         0.085543      0.034217      0.034414
Pd     14.08189     11.51008      8.92376         0.001055      0.050775     -0.004955
Pd      8.62900     14.11112     12.10387         0.022363     -0.021202      0.010371
Pd     12.24513     13.75390     14.02872        -0.024096     -0.015712     -0.013033
Pd     11.17143     14.42543     11.14678         0.017004     -0.017607      0.060241
Pd     14.05839     13.55731     12.17126        -0.010323      0.019151     -0.001715
Pd     12.31345     12.13320     10.68490        -0.005906     -0.013527      0.006921
Pd     12.64576     12.31020      6.71563         0.028509      0.062392     -0.005012
Pd     13.63815      8.93259      7.91878         0.055760     -0.000878     -0.035758
Pd      6.85929      8.46771      8.86184         0.017475      0.017838     -0.007367
Pd      5.52716      9.93314     11.27174         0.010100      0.042655     -0.053999
Pd      9.13147      9.75995      8.29971         0.025484     -0.028392     -0.007434
Pd      8.82921      7.24589      7.48432        -0.022681     -0.015554     -0.045946
Pd      9.52547     12.08261     10.43428         0.026239      0.005994      0.014323
Pd     11.52038     10.70811      8.58157         0.014580      0.017689     -0.020251
Pd     11.22559      9.25794      6.43938         0.038145     -0.048715     -0.041819
Pd      9.88330     11.56730      6.37423         0.036051     -0.032368     -0.026275
Ir     11.36104      9.11915     13.37114        -0.011334      0.018938     -0.005519
Ir     13.07144      9.47944     10.38615        -0.006386     -0.038615      0.037496
Ir     10.54025     12.35934     12.71805        -0.021618      0.009478      0.030948
Ir      7.13898     10.98969      9.51022         0.019464      0.012327      0.009120
Ir      8.40912     12.46545      8.19303         0.003237      0.005293     -0.005326
Ir      8.06681      9.31298     11.12271        -0.003271     -0.001104      0.017685
