7
# total energy = -58.25118573 eVC      0.00000      2.89514      7.92107        -0.000000     -0.867982     -0.035816
C      1.23935      0.71554      7.92107         0.751695      0.433991     -0.035816
C      2.50727     -1.44757      7.92107        -0.751695      0.433991     -0.035816
C      0.00000      1.43108      7.92107        -0.000000      0.867982     -0.035816
C      2.50727      1.44757      7.92107        -0.751695     -0.433991     -0.035816
C      1.23935     -0.71554      7.92107         0.751695     -0.433991     -0.035816
Ir      0.00000     -0.00000      9.65026        -0.000000      0.000000      0.214894
