152
# total energy = -1023.20017563 eVH     10.35389      5.87395      7.64558         0.490309      0.081422      0.711586
H     10.62451     15.10445      7.64558        -0.121382     -0.039020      0.826936
H     10.62451      5.87395     13.33282         0.143002      0.124900     -0.636934
H     10.35389     15.10445     13.33282        -0.159829     -0.127179     -0.539479
H      7.64558     10.35389      5.87395         0.311042     -0.022816      0.190973
H      7.64558     10.62451     15.10445         0.635636     -0.217379     -0.143850
H     13.33282     10.62451      5.87395        -0.774155     -0.164591      0.203624
H     13.33282     10.35389     15.10445        -0.413948     -0.097253     -0.071459
H      5.87395      7.64558     10.35389         0.207961      1.113133     -0.283403
H     15.10445      7.64558     10.62451        -0.177897      0.479109     -0.129473
H      5.87395     13.33282     10.62451         0.159633     -0.418158     -0.062811
H     15.10445     13.33282     10.35389        -0.131215     -0.905860      0.014459
H      5.87395     10.35389      7.64558         0.134716      0.095432      0.457891
H     15.10445     10.62451      7.64558         0.103326     -0.041375      1.055105
H      5.87395     10.62451     13.33282         0.198384     -0.030909     -0.384485
H     15.10445     10.35389     13.33282        -0.128520     -0.047264     -0.527958
H     10.35389      7.64558      5.87395         0.134624      0.883476      0.183725
H     10.62451      7.64558     15.10445        -0.016912      0.569037     -0.159510
H     10.62451     13.33282      5.87395        -0.016977     -0.586791      0.217659
H     10.35389     13.33282     15.10445        -0.281033     -0.894355     -0.132980
H      7.64558      5.87395     10.35389         0.445761      0.095276     -0.057921
H      7.64558     15.10445     10.62451         0.848772     -0.279279      0.033190
H     13.33282      5.87395     10.62451        -0.456177      0.186712     -0.067329
H     13.33282     15.10445     10.35389        -0.663637     -0.102229      0.163465
H     12.45634     12.45634     19.01126         0.253081      0.263152     -0.230998
H     19.01126     19.01126     19.01126        -0.251844     -0.230892     -0.262889
H     19.01126     12.45634     12.45634        -0.234619      0.271939      0.240931
H     12.45634     19.01126     12.45634         0.225081     -0.264507      0.249257
C     10.35284      5.61067      6.59456        -0.190528     -0.352401     -0.035531
C     10.62556     15.36773      6.59456         0.073049      0.366392     -1.252709
C     10.62556      5.61067     14.38384        -0.056672     -0.264028      0.803632
C     10.35284     15.36773     14.38384         0.041431      0.890049      0.428569
C      6.59456     10.35284      5.61067        -0.362082     -0.036182     -0.167797
C      6.59456     10.62556     15.36773        -0.816926      0.187804      0.360113
C     14.38384     10.62556      5.61067         0.469469      0.305077     -0.498431
C     14.38384     10.35284     15.36773         0.767035     -0.109786      0.444619
C      5.61067      6.59456     10.35284        -0.316806     -0.657182      0.427825
C     15.36773      6.59456     10.62556         0.167762     -0.512232      0.089024
C      5.61067     14.38384     10.62556        -0.146431      0.381199     -0.024301
C     15.36773     14.38384     10.35284         0.400367     -0.033403     -0.096659
C      5.61067     10.35284      6.59456        -0.259884     -0.022346     -0.782738
C     15.36773     10.62556      6.59456         0.608200     -0.260748     -1.350051
C      5.61067     10.62556     14.38384        -0.335357     -0.002306      0.436052
C     15.36773     10.35284     14.38384         0.482175     -0.163627      1.109703
C     10.35284      6.59456      5.61067        -0.160165     -0.496113     -0.421562
C     10.62556      6.59456     15.36773         0.061444     -0.685660      0.276653
C     10.62556     14.38384      5.61067         0.096869      0.987035     -0.501772
C     10.35284     14.38384     15.36773         0.259318      0.609337      0.528292
C      6.59456      5.61067     10.35284        -0.097234     -0.819461      0.076358
C      6.59456     15.36773     10.62556        -1.533423      0.418204      0.108638
C     14.38384      5.61067     10.62556         0.638470     -0.279492     -0.020246
C     14.38384     15.36773     10.35284        -0.424585      0.674426     -0.311100
C     10.40319      3.19606      7.29314         0.006598      0.825775     -0.290837
C     10.35913      4.25547      6.23373        -0.059406     -0.464609      0.496455
C      0.08601      7.29314      7.29314        -0.006472     -0.251675     -0.521075
C      0.13007      6.23373      6.23373         0.035572      0.161797      0.219892
C      0.08601      3.19606      3.19606        -0.011157      0.608887      0.197895
C      0.13007      4.25547      4.25547        -0.094611     -0.180290     -0.196145
C     10.40319      7.29314      3.19606        -0.008526     -0.632491      0.568950
C     10.35913      6.23373      4.25547        -0.050771      0.259153     -0.612716
C      7.29314     10.40319      3.19606        -0.310423      0.025305      0.949935
C      6.23373     10.35913      4.25547         0.165483      0.027862     -0.127957
C      7.29314      0.08601      7.29314        -0.299365     -0.037247     -0.302416
C      6.23373      0.13007      6.23373         0.323960     -0.050159      0.315070
C      3.19606      0.08601      3.19606         0.513494     -0.032909      0.723091
C      4.25547      0.13007      4.25547        -0.091305     -0.029627     -0.369477
C      3.19606     10.40319      7.29314         0.727169      0.000515     -0.402480
C      4.25547     10.35913      6.23373        -0.151285      0.025191      0.075628
C      3.19606      7.29314     10.40319         0.687911     -1.277142     -0.010057
C      4.25547      6.23373     10.35913        -0.661747      0.920470      0.081906
C      7.29314      7.29314      0.08601        -0.695936     -0.179419     -0.019722
C      6.23373      6.23373      0.13007         0.222090      0.208129      0.018481
C      3.19606      3.19606      0.08601         0.268135      0.294786     -0.021742
C      4.25547      4.25547      0.13007        -0.073562     -0.039774     -0.003833
C      7.29314      3.19606     10.40319        -0.361052      1.026795      0.016434
C      6.23373      4.25547     10.35913         1.062717     -0.034117      0.014351
O     10.43466      3.58206      8.50569        -0.043711      0.051515      0.385919
O     10.54374     17.39634      8.50569        -0.042382     -0.176677      0.591971
O     10.54374      3.58206     12.47271         0.049852      0.072712     -0.326099
O     10.43466     17.39634     12.47271        -0.007404     -0.143529     -0.638899
O      8.50569     10.43466      3.58206         0.342181     -0.031213     -0.034606
O      8.50569     10.54374     17.39634         0.467045      0.044300     -0.144026
O     12.47271     10.54374      3.58206        -0.468916      0.013056      0.077297
O     12.47271     10.43466     17.39634        -0.814380      0.003674     -0.198098
O      3.58206      8.50569     10.43466         0.103350      1.031579      0.016355
O     17.39634      8.50569     10.54374        -0.030163      0.306429      0.073721
O      3.58206     12.47271     10.54374         0.072703     -0.461784      0.050980
O     17.39634     12.47271     10.43466        -0.177286     -0.907958      0.059635
O      3.58206     10.43466      8.50569        -0.066649     -0.068725      0.320080
O     17.39634     10.54374      8.50569        -0.133219      0.041276      0.464623
O      3.58206     10.54374     12.47271         0.093546     -0.026608     -0.654617
O     17.39634     10.43466     12.47271        -0.184977      0.057229     -0.797996
O     10.43466      8.50569      3.58206         0.026278      0.633412      0.153251
O     10.54374      8.50569     17.39634         0.061182      0.433311     -0.082596
O     10.54374     12.47271      3.58206        -0.007097     -0.707855      0.224941
O     10.43466     12.47271     17.39634         0.034219     -0.834895     -0.237726
O      8.50569      3.58206     10.43466         0.436265      0.016958     -0.042174
O      8.50569     17.39634     10.54374         0.698846     -0.266424     -0.066471
O     12.47271      3.58206     10.54374        -0.462722      0.153344      0.041254
O     12.47271     17.39634     10.43466        -0.570364     -0.029175     -0.005949
O     11.90042     11.90042     19.56718        -0.295343     -0.313490      0.256423
O     19.56718     19.56718     19.56718         0.283154      0.261003      0.311248
O     19.56718     11.90042     11.90042         0.259360     -0.322093     -0.247534
O     11.90042     19.56718     11.90042        -0.272331      0.276811     -0.266759
O      9.45224      1.03696      9.45224        -0.083302      0.041773     -0.070893
O      1.03696      9.45224      9.45224         0.012999     -0.171669     -0.097172
O      1.03696      1.03696      1.03696         0.003199      0.068799      0.176965
O      9.45224      9.45224      1.03696        -0.062481     -0.104446      0.103997
Zr     10.48920      2.52580     10.48920         0.004305     -0.096446     -0.048123
Zr     10.48920     18.45260     10.48920         0.134844      0.364289     -0.002180
Zr     10.48920     10.48920      2.52580         0.008109     -0.021054     -0.373677
Zr     10.48920     10.48920     18.45260        -0.154024     -0.055398      0.360675
Zr      2.52580     10.48920     10.48920        -0.324568      0.239131     -0.140342
Zr     18.45260     10.48920     10.48920         0.279001     -0.018785     -0.281427
Pd      9.02059     10.14102     13.30044        -0.061440     -0.034254      0.018615
Pd     10.69779      9.72362     10.90256        -0.031306     -0.044810     -0.073627
Pd     13.73907      8.37181     12.56920        -0.020971      0.026034     -0.002768
Pd     11.02597     10.92300     14.96017        -0.029557     -0.018801      0.013790
Pd     12.89276     10.99738     12.92507         0.035785      0.022707      0.063502
Pd     15.11233     11.11538     11.31365         0.002455     -0.015982      0.001368
Pd      6.59950      7.69848     12.31095        -0.014454      0.023783      0.008733
Pd      9.31794      7.29373      9.88121        -0.000592     -0.007774     -0.023823
Pd      9.22280      7.47861     12.64083         0.000145      0.002246     -0.022022
Pd     11.63198      7.15007     11.43046        -0.007092      0.009141     -0.002350
Pd     11.69317      8.01876      8.93315         0.012495     -0.048377     -0.021813
Pd      7.38938     11.78128     11.78317        -0.020846     -0.008462     -0.003304
Pd      9.19474     14.77702      9.43529         0.010416     -0.007365      0.006298
Pd      8.41684     12.55765     14.25112         0.000978     -0.006119     -0.012876
Pd     14.08931     14.25491      8.31281         0.002730     -0.008588      0.003997
Pd     11.49036     13.65914      8.71183         0.009781     -0.008402      0.022632
Pd     14.17083     11.69546      8.88663        -0.005172      0.000391      0.003425
Pd      8.72159     14.04264     12.06113         0.009971     -0.005126     -0.001835
Pd     12.28389     13.48005     14.14648        -0.015686      0.007731     -0.027581
Pd     11.33900     14.44955     11.43440         0.002722     -0.014799     -0.005893
Pd     14.08420     13.60511     12.27733         0.013084     -0.009279     -0.004569
Pd     12.43459     12.20238     10.71145        -0.021629     -0.057907      0.047735
Pd     12.75216     12.51510      6.68192        -0.002466     -0.002140      0.009306
Pd     13.92832      9.00562      8.01347         0.016454     -0.004997     -0.016567
Pd      6.93879      8.50301      8.76776         0.000568     -0.010420     -0.015898
Pd      5.62625     10.10846     10.73729        -0.012798     -0.003463     -0.038135
Pd      9.39823      9.47824      8.14676        -0.012512     -0.035427     -0.059603
Pd      8.58096      7.04471      7.24779        -0.013188     -0.020262      0.002935
Pd      9.76714     12.14695     10.33271        -0.018874     -0.023353      0.019182
Pd     11.64196     10.81961      8.51146        -0.012930     -0.009213     -0.033174
Pd     11.57724      9.09918      6.48857         0.004961      0.006588      0.007278
Pd     10.08101     11.35393      6.35218        -0.025633      0.011591      0.027383
Ir     11.31128      8.96993     13.26045        -0.031844      0.075145     -0.117563
Ir     13.22082      9.64057     10.40216         0.006761     -0.063211      0.002860
Ir     10.56269     12.23795     12.71911        -0.009804     -0.016834      0.012895
Ir      7.58944     11.01009      9.25857         0.024732     -0.000257     -0.032708
Ir      8.80432     12.63362      8.07263         0.087968     -0.042162      0.034570
Ir      8.19692      9.31132     11.00582        -0.008523     -0.003447      0.014102
