152
# total energy = -1061.44538634 eVH     10.35389      5.87395      7.64558        -0.200943      0.128417      1.020884
H     10.62451     15.10445      7.64558         0.444130     -0.120108      0.787051
H     10.62451      5.87395     13.33282        -0.089033      0.101249     -0.452501
H     10.35389     15.10445     13.33282         0.085979     -0.192924     -0.406187
H      7.64558     10.35389      5.87395         0.884319      0.202419      0.222189
H      7.64558     10.62451     15.10445         0.210544     -0.023329     -0.070203
H     13.33282     10.62451      5.87395        -0.596216     -0.047672      0.168955
H     13.33282     10.35389     15.10445        -0.323071     -0.054850     -0.076846
H      5.87395      7.64558     10.35389         0.127216      0.362551     -0.078218
H     15.10445      7.64558     10.62451        -0.137631      0.438139      0.175497
H      5.87395     13.33282     10.62451         0.107714     -0.643162      0.127701
H     15.10445     13.33282     10.35389        -0.228663     -0.434629      0.091413
H      5.87395     10.35389      7.64558         0.154691      0.286637      0.389468
H     15.10445     10.62451      7.64558        -0.140274     -0.357525      0.734718
H      5.87395     10.62451     13.33282         0.036392      0.148993     -0.710453
H     15.10445     10.35389     13.33282         0.074811     -0.242334     -0.729071
H     10.35389      7.64558      5.87395        -0.161467      0.447288      0.213084
H     10.62451      7.64558     15.10445         0.369624      0.610250     -0.120386
H     10.62451     13.33282      5.87395         0.067587     -0.557102      0.099663
H     10.35389     13.33282     15.10445         0.259344     -0.713409     -0.090293
H      7.64558      5.87395     10.35389         0.489981      0.145694     -0.156323
H      7.64558     15.10445     10.62451         0.399421     -0.145138      0.449126
H     13.33282      5.87395     10.62451        -0.391758      0.161227     -0.077584
H     13.33282     15.10445     10.35389        -0.584226     -0.292923      0.120482
H     12.45634     12.45634     19.01126         0.230746      0.265584     -0.249305
H     19.01126     19.01126     19.01126        -0.261857     -0.259223     -0.230655
H     19.01126     12.45634     12.45634        -0.234456      0.276180      0.234897
H     12.45634     19.01126     12.45634         0.275879     -0.210757      0.256097
C     10.35284      5.61067      6.59456         0.272664     -0.303262     -0.773726
C     10.62556     15.36773      6.59456        -0.189632      0.634844     -0.306197
C     10.62556      5.61067     14.38384         0.251937     -0.234307      0.487740
C     10.35284     15.36773     14.38384        -0.111588      0.279634      0.288173
C      6.59456     10.35284      5.61067        -0.832136     -0.093203     -0.242605
C      6.59456     10.62556     15.36773        -0.516390      0.046865      0.349163
C     14.38384     10.62556      5.61067         0.784178     -0.031225     -0.628188
C     14.38384     10.35284     15.36773         0.268516     -0.071513      0.348225
C      5.61067      6.59456     10.35284        -0.409475     -0.358715      0.078875
C     15.36773      6.59456     10.62556         0.321352     -0.467781     -0.063447
C      5.61067     14.38384     10.62556        -0.151407      0.480910     -0.418766
C     15.36773     14.38384     10.35284         0.408433      0.818341     -0.095849
C      5.61067     10.35284      6.59456        -0.320152     -0.175307     -0.106718
C     15.36773     10.62556      6.59456         0.208918      0.278939     -0.579067
C      5.61067     10.62556     14.38384        -0.345939     -0.040584      1.216146
C     15.36773     10.35284     14.38384         0.294524     -0.066939      0.987836
C     10.35284      6.59456      5.61067         0.082071     -0.240239     -0.502911
C     10.62556      6.59456     15.36773         0.013670     -0.777417      0.113513
C     10.62556     14.38384      5.61067        -0.382986      0.194205     -0.927220
C     10.35284     14.38384     15.36773        -0.259232      0.833231      0.268921
C      6.59456      5.61067     10.35284        -0.354098     -0.291483      0.258703
C      6.59456     15.36773     10.62556        -0.253619      0.514001     -0.070490
C     14.38384      5.61067     10.62556         0.477561     -0.382659      0.059130
C     14.38384     15.36773     10.35284         0.976901      0.274392     -0.066855
C     10.40319      3.19606      7.29314         0.008160      0.547740     -0.313321
C     10.35913      4.25547      6.23373        -0.012736     -0.523354      0.407435
C      0.08601      7.29314      7.29314        -0.015260     -0.839543     -0.566338
C      0.13007      6.23373      6.23373        -0.193793      0.877703      0.151797
C      0.08601      3.19606      3.19606        -0.009581      0.416046      0.389397
C      0.13007      4.25547      4.25547         0.067333     -0.235004     -0.565434
C     10.40319      7.29314      3.19606        -0.045435     -1.009122      0.791699
C     10.35913      6.23373      4.25547         0.019112      0.333379     -0.233446
C      7.29314     10.40319      3.19606        -1.334220     -0.085001      0.327500
C      6.23373     10.35913      4.25547         0.264035      0.017320     -0.703378
C      7.29314      0.08601      7.29314        -0.830503     -0.002547     -0.409030
C      6.23373      0.13007      6.23373         0.325677      0.052454      0.126328
C      3.19606      0.08601      3.19606         0.320001     -0.000081      0.434039
C      4.25547      0.13007      4.25547        -0.284788     -0.032067     -0.176116
C      3.19606     10.40319      7.29314         0.493761     -0.040836     -1.033632
C      4.25547     10.35913      6.23373        -0.325134     -0.076669      0.096884
C      3.19606      7.29314     10.40319         1.076652     -0.444071      0.013259
C      4.25547      6.23373     10.35913        -0.194161      0.167891     -0.000473
C      7.29314      7.29314      0.08601        -0.514822     -0.281101     -0.007471
C      6.23373      6.23373      0.13007         0.163898      0.189440     -0.158664
C      3.19606      3.19606      0.08601         0.358529      0.886571     -0.008557
C      4.25547      4.25547      0.13007        -0.597588     -0.177197      0.037541
C      7.29314      3.19606     10.40319        -0.199530      0.492526      0.026553
C      6.23373      4.25547     10.35913        -0.010593     -0.367348      0.043222
O     10.43466      3.58206      8.50569        -0.023343      0.133022      0.388837
O     10.54374     17.39634      8.50569         0.041142      0.051378      0.368881
O     10.54374      3.58206     12.47271         0.040800      0.194852     -0.575170
O     10.43466     17.39634     12.47271         0.030394     -0.023585     -0.482200
O      8.50569     10.43466      3.58206         0.774491     -0.060142     -0.029024
O      8.50569     10.54374     17.39634         0.855067      0.021655     -0.163466
O     12.47271     10.54374      3.58206        -0.347671      0.035586      0.083007
O     12.47271     10.43466     17.39634        -0.377923     -0.036700      0.039189
O      3.58206      8.50569     10.43466        -0.101301      0.264549     -0.079787
O     17.39634      8.50569     10.54374        -0.103434      0.445201      0.044368
O      3.58206     12.47271     10.54374         0.151151     -0.825898     -0.021824
O     17.39634     12.47271     10.43466        -0.237933     -0.632185     -0.017225
O      3.58206     10.43466      8.50569         0.127076     -0.032071      0.794094
O     17.39634     10.54374      8.50569         0.002419      0.036795      0.337669
O      3.58206     10.54374     12.47271         0.066595      0.018310     -0.458700
O     17.39634     10.43466     12.47271         0.058374      0.012433     -0.239527
O     10.43466      8.50569      3.58206        -0.054409      0.547012     -0.069237
O     10.54374      8.50569     17.39634         0.029256      0.862451     -0.203702
O     10.54374     12.47271      3.58206         0.070755     -0.368561      0.071792
O     10.43466     12.47271     17.39634        -0.055138     -0.642225     -0.198486
O      8.50569      3.58206     10.43466         0.352232      0.084128     -0.052073
O      8.50569     17.39634     10.54374         0.567862     -0.169257     -0.019703
O     12.47271      3.58206     10.54374        -0.367304      0.048883      0.036438
O     12.47271     17.39634     10.43466        -0.826867     -0.144207      0.075809
O     11.90042     11.90042     19.56718        -0.243807     -0.283189      0.237636
O     19.56718     19.56718     19.56718         0.300745      0.292588      0.250192
O     19.56718     11.90042     11.90042         0.228794     -0.305441     -0.275641
O     11.90042     19.56718     11.90042        -0.274642      0.180360     -0.277110
O      9.45224      1.03696      9.45224        -0.107211      0.086083     -0.086279
O      1.03696      9.45224      9.45224         0.121842     -0.151066     -0.173968
O      1.03696      1.03696      1.03696         0.138903      0.209323     -0.002476
O      9.45224      9.45224      1.03696        -0.211409     -0.172915      0.028306
Zr     10.48920      2.52580     10.48920        -0.004648     -0.233252      0.146611
Zr     10.48920     18.45260     10.48920        -0.298189      0.311237     -0.152315
Zr     10.48920     10.48920      2.52580         0.366553      0.384225     -0.229385
Zr     10.48920     10.48920     18.45260         0.001177      0.022008      0.468628
Zr      2.52580     10.48920     10.48920        -0.559752      0.019262      0.340760
Zr     18.45260     10.48920     10.48920         0.271552     -0.142087      0.001986
Pd      9.22385     14.66968      9.22566         0.007077     -0.004676      0.007356
Pd      8.47093     13.20843     13.82374         0.001722      0.002490      0.010297
Pd     12.14215     14.13307      8.66174         0.002169     -0.004118      0.002040
Pd     12.24853     12.75685     10.89437        -0.000612     -0.024554      0.009023
Pd     11.76929      7.07448     11.87350         0.001609     -0.008813     -0.000185
Pd     11.17952     15.31141     10.95345        -0.005581     -0.001632      0.009509
Pd      9.60713     13.16564     11.40728        -0.001868     -0.007519     -0.009136
Pd     14.02115     12.40248      7.97093        -0.002336      0.005659      0.005029
Pd     11.57129     11.78026      6.74920        -0.001276     -0.005736      0.007278
Pd      7.41472      8.53302      7.19263         0.007796      0.001831      0.008586
Pd      8.59867     12.10807      6.91782         0.001812     -0.007598     -0.000208
Pd      9.70173      9.91124      7.99774         0.000823      0.014877     -0.018728
Pd      8.47493     14.75777      6.58629         0.005650      0.006924     -0.001770
Pd     12.00912      9.06735      6.83183        -0.001133      0.013043     -0.002273
Pd      9.89697     10.06470      5.40158         0.000516      0.018171      0.008083
Pd      6.89640      9.21647     12.17123        -0.005943      0.006335      0.006719
Pd     12.39965      6.53869      7.65887         0.008663     -0.004003     -0.007959
Pd      5.56620     10.69224     10.10963        -0.008510     -0.002428      0.009521
Pd      7.56630      6.66140     12.69323        -0.003723     -0.009601      0.003515
Ir     11.27603      9.53474     12.83437        -0.021046     -0.012808      0.005268
Ir     13.06522      9.22964     11.06997         0.001296      0.002415     -0.000220
Ir      9.14731      8.41996     13.75359         0.003738     -0.004282      0.013813
Ir     10.27437     10.37189     15.06357        -0.009239     -0.011688      0.000444
Ir      7.09816     11.91104     11.85105         0.003223     -0.002611     -0.016834
Ir     14.40057     11.18718     10.31278        -0.008756     -0.011662      0.008020
Ir     12.26413     10.62825      9.04911        -0.013370      0.013555      0.009445
Ir      8.92109     10.78807     12.89077         0.006837      0.002947      0.000420
Ir     10.01230     10.29542     10.61040        -0.006855      0.004395      0.000842
Ir     13.29513     11.18862     12.60380         0.002296      0.005448     -0.007756
Ir     11.09269     12.03858     13.31953        -0.005894     -0.004087      0.006650
Ir      7.94778     11.74188      9.51300        -0.005034      0.026571      0.016732
Ir     11.26254      8.16275      9.43006         0.003338      0.003986      0.012959
Ir      6.98120     13.61977      8.39227         0.004440     -0.006233      0.029515
Ir      9.04431      7.29141      8.79269        -0.012389     -0.000859     -0.009013
Ir      7.72880      9.21993      9.70686        -0.000313      0.004003     -0.002550
Ir     10.35290     12.34775      8.98026        -0.008445      0.000933      0.007008
Ir      9.31530      7.90242     11.24787         0.008606     -0.011376     -0.010837
Ir     13.73062      8.48118      8.78112         0.016645      0.006734     -0.004893
