152
# total energy = -1002.93671094 eVH     10.35389      5.87395      7.64558        -0.037423      0.181752      0.973484
H     10.62451     15.10445      7.64558        -0.034662     -0.115732      1.074241
H     10.62451      5.87395     13.33282         0.040106      0.012980     -1.061838
H     10.35389     15.10445     13.33282        -0.110404     -0.190633     -0.905722
H      7.64558     10.35389      5.87395         0.882496      0.295931     -0.230749
H      7.64558     10.62451     15.10445         0.757420      0.351212      0.040793
H     13.33282     10.62451      5.87395        -0.530584      0.113028      0.033057
H     13.33282     10.35389     15.10445        -0.678277     -0.194405      0.042603
H      5.87395      7.64558     10.35389        -0.287884      2.124122      0.172834
H     15.10445      7.64558     10.62451         0.026005      1.327501     -0.048869
H      5.87395     13.33282     10.62451         0.110423     -0.895455     -0.068230
H     15.10445     13.33282     10.35389         0.154002     -1.206778     -0.371468
H      5.87395     10.35389      7.64558        -0.743294      0.291938      1.301533
H     15.10445     10.62451      7.64558         0.197640      0.711973      1.638657
H      5.87395     10.62451     13.33282        -0.363410      0.507471     -1.271456
H     15.10445     10.35389     13.33282         1.223671     -0.061487     -1.150913
H     10.35389      7.64558      5.87395         0.495244      1.302307     -0.057116
H     10.62451      7.64558     15.10445         0.353617      0.798504     -0.056672
H     10.62451     13.33282      5.87395        -0.343583     -0.849130      0.038754
H     10.35389     13.33282     15.10445        -0.121541     -0.473546     -0.160375
H      7.64558      5.87395     10.35389         0.867959     -0.162577     -0.054783
H      7.64558     15.10445     10.62451         0.545436     -0.182101     -0.045031
H     13.33282      5.87395     10.62451        -1.039506      0.038859      0.296642
H     13.33282     15.10445     10.35389        -0.424562     -0.087352     -0.056079
H     12.45634     12.45634     19.01126         0.265553      0.233880     -0.245751
H     19.01126     19.01126     19.01126        -0.260033     -0.253773     -0.234212
H     19.01126     12.45634     12.45634        -0.257229      0.267558      0.232179
H     12.45634     19.01126     12.45634         0.265827     -0.263245      0.226725
C     10.35284      5.61067      6.59456        -0.113653     -0.981118     -0.988540
C     10.62556     15.36773      6.59456        -0.008950      0.442596     -0.940500
C     10.62556      5.61067     14.38384        -0.125247     -0.624086      1.410260
C     10.35284     15.36773     14.38384         0.127272      0.298508      0.936199
C      6.59456     10.35284      5.61067        -1.666640      0.168542     -0.987423
C      6.59456     10.62556     15.36773        -1.049682      0.247321      0.811495
C     14.38384     10.62556      5.61067         1.375747      0.153757     -0.919757
C     14.38384     10.35284     15.36773         1.280929      0.027670      0.796401
C      5.61067      6.59456     10.35284        -0.696934     -1.322988     -0.013924
C     15.36773      6.59456     10.62556         0.546829     -0.499176      0.063397
C      5.61067     14.38384     10.62556        -0.355369      0.994480      0.039398
C     15.36773     14.38384     10.35284         0.334819      1.450282      0.054756
C      5.61067     10.35284      6.59456        -0.369006     -0.014371     -1.592622
C     15.36773     10.62556      6.59456         0.444910      0.005947     -1.325936
C      5.61067     10.62556     14.38384        -0.292061     -0.050656      1.296875
C     15.36773     10.35284     14.38384         0.060929     -0.045121      1.758401
C     10.35284      6.59456      5.61067         0.007956     -1.179129     -0.679382
C     10.62556      6.59456     15.36773         0.053284     -0.732828      0.613206
C     10.62556     14.38384      5.61067         0.064065      0.714353     -0.495718
C     10.35284     14.38384     15.36773        -0.033986      0.444915      0.394900
C      6.59456      5.61067     10.35284        -0.410360     -1.190315      0.038734
C      6.59456     15.36773     10.62556        -0.680870      0.561055      0.014548
C     14.38384      5.61067     10.62556         0.605225     -0.778016     -0.150066
C     14.38384     15.36773     10.35284         0.399428      0.558422     -0.061753
C     10.40319      3.19606      7.29314        -0.028472      0.323369     -0.951898
C     10.35913      4.25547      6.23373        -0.059409     -0.515852      0.174488
C      0.08601      7.29314      7.29314        -0.018468     -0.588216     -0.327008
C      0.13007      6.23373      6.23373        -0.049544      0.393023      0.383578
C      0.08601      3.19606      3.19606        -0.001776      0.406670      0.525460
C      0.13007      4.25547      4.25547        -0.009030     -0.447469     -0.392394
C     10.40319      7.29314      3.19606        -0.051394     -0.754412      0.253533
C     10.35913      6.23373      4.25547         0.008310      0.267444     -0.627147
C      7.29314     10.40319      3.19606        -0.682129     -0.014101      0.152755
C      6.23373     10.35913      4.25547         0.342542     -0.033525     -0.400970
C      7.29314      0.08601      7.29314        -0.661813     -0.073491     -0.310039
C      6.23373      0.13007      6.23373         0.585859     -0.168173      0.295505
C      3.19606      0.08601      3.19606         0.686777     -0.047572      0.225055
C      4.25547      0.13007      4.25547        -0.472227     -0.262610     -0.424697
C      3.19606     10.40319      7.29314         0.386511      0.004354     -0.163774
C      4.25547     10.35913      6.23373        -0.274330     -0.023003      0.371857
C      3.19606      7.29314     10.40319         0.301429     -0.431733      0.017410
C      4.25547      6.23373     10.35913        -0.867208      0.157099      0.073144
C      7.29314      7.29314      0.08601        -0.411878     -0.374495     -0.019961
C      6.23373      6.23373      0.13007         0.705171      0.085783     -0.002150
C      3.19606      3.19606      0.08601         0.777503      0.313830     -0.018114
C      4.25547      4.25547      0.13007        -0.242900     -0.716083     -0.048977
C      7.29314      3.19606     10.40319        -0.409543      0.472371      0.018871
C      6.23373      4.25547     10.35913         0.430876     -0.599945      0.088429
O     10.43466      3.58206      8.50569         0.088008      0.246578      0.777994
O     10.54374     17.39634      8.50569         0.017149     -0.136495      0.394383
O     10.54374      3.58206     12.47271         0.091898      0.174211     -0.539874
O     10.43466     17.39634     12.47271        -0.032104     -0.082037     -0.337522
O      8.50569     10.43466      3.58206         0.684968     -0.081578      0.220846
O      8.50569     10.54374     17.39634         0.702041     -0.030754     -0.239384
O     12.47271     10.54374      3.58206        -0.700429      0.081981      0.256397
O     12.47271     10.43466     17.39634        -0.508778      0.019568     -0.217799
O      3.58206      8.50569     10.43466         0.179978      0.588170     -0.032933
O     17.39634      8.50569     10.54374        -0.152331      0.527757      0.037837
O      3.58206     12.47271     10.54374         0.080557     -0.407341      0.034286
O     17.39634     12.47271     10.43466        -0.162157     -0.564745     -0.033831
O      3.58206     10.43466      8.50569         0.155348     -0.025461      0.321364
O     17.39634     10.54374      8.50569        -0.078192      0.078716      0.357115
O      3.58206     10.54374     12.47271         0.079592      0.054124     -0.304957
O     17.39634     10.43466     12.47271        -0.064619     -0.022829     -0.225080
O     10.43466      8.50569      3.58206        -0.089564      0.711217      0.188729
O     10.54374      8.50569     17.39634        -0.030284      0.634305     -0.194715
O     10.54374     12.47271      3.58206         0.037787     -0.500450      0.109394
O     10.43466     12.47271     17.39634        -0.022592     -0.344762     -0.015935
O      8.50569      3.58206     10.43466         0.610262      0.145509     -0.044767
O      8.50569     17.39634     10.54374         0.574966     -0.175669      0.029888
O     12.47271      3.58206     10.54374        -0.747906      0.132209      0.021168
O     12.47271     17.39634     10.43466        -0.539743     -0.139062     -0.032338
O     11.90042     11.90042     19.56718        -0.308479     -0.244130      0.263022
O     19.56718     19.56718     19.56718         0.302110      0.312210      0.258309
O     19.56718     11.90042     11.90042         0.314297     -0.302884     -0.246066
O     11.90042     19.56718     11.90042        -0.321447      0.328346     -0.230958
O      9.45224      1.03696      9.45224        -0.021681      0.100957     -0.092212
O      1.03696      9.45224      9.45224         0.040506     -0.016964     -0.101513
O      1.03696      1.03696      1.03696         0.030490      0.097087      0.091323
O      9.45224      9.45224      1.03696        -0.054780     -0.028615      0.118310
Zr     10.48920      2.52580     10.48920        -0.178945     -0.328243      0.155208
Zr     10.48920     18.45260     10.48920         0.086658      0.086435     -0.007943
Zr     10.48920     10.48920      2.52580         0.050437      0.063240     -0.362031
Zr     10.48920     10.48920     18.45260         0.034329     -0.044910      0.277107
Zr      2.52580     10.48920     10.48920        -0.079493     -0.129834      0.001403
Zr     18.45260     10.48920     10.48920         0.097518     -0.004154     -0.030444
Pd     11.88757      8.52641     10.31426         0.105895      0.005971     -0.051952
Pd      7.26168      9.95848     10.44741         0.003413     -0.080137      0.106999
Pd      7.25630     12.30158     11.79104        -0.067903     -0.074735      0.055421
Pd     12.03518     13.37065      7.47598         0.016840      0.050145      0.032513
Pd     11.52565      8.21452      7.55190        -0.079275     -0.061865     -0.062507
Pd      8.80745      7.33163      7.17101        -0.062404     -0.019117      0.034726
Pd     11.64094     11.03776      6.26220         0.060822     -0.002392     -0.116508
Pd     13.82283      9.30060      7.63444         0.031066      0.062360     -0.003363
Pd      9.51917     11.85286      7.57393         0.023200      0.024609     -0.088122
Pd      7.06103      7.52538     11.87018         0.074677     -0.016858      0.123846
Pd      6.98173      7.63629      8.86940        -0.019766      0.095559      0.057750
Pd      7.49516      9.76182     13.11485         0.021476     -0.140002      0.045526
Pd     11.38087      5.95662      9.18928        -0.002906      0.042033      0.014212
Pd      9.53895      9.61890      5.98662        -0.007017      0.046953      0.031040
Pd      9.33847     14.16188      8.88941         0.022387      0.005259      0.089743
Pd     11.47503      6.38571     11.79599        -0.046043      0.026968      0.067808
Pd      9.72072      9.35356      9.00520        -0.054928      0.054804      0.024695
Pd      9.40995     11.73932     10.24173        -0.004208     -0.096788      0.013871
Pd      9.32700      7.11094     10.33963        -0.018423      0.017538      0.019426
Pd      9.15188      7.30947     13.39824        -0.123572      0.002290      0.063001
Pd      9.56798      9.35713     11.68031        -0.043214     -0.052549     -0.109403
Pd     11.86300     10.87999      8.86269        -0.017093      0.116591     -0.113886
Pd      7.20803     12.44227      9.01720        -0.100582     -0.018952      0.004581
Pd      7.60709      9.97455      7.88091         0.041556     -0.167364      0.059745
Pd     13.75339      7.07439      8.90018         0.069978     -0.036008      0.026033
Pd     13.80379      7.82000     12.11775         0.002387      0.030371      0.088735
Pd      9.47434     11.71840     13.10259        -0.021606      0.078657     -0.108471
Pd     14.12337     12.28398      8.74695        -0.104395     -0.037521      0.009793
Pd     13.50063     10.40998     12.78907         0.077128     -0.150604      0.055849
Pd     14.10590      9.98865     10.24953        -0.067572      0.025236     -0.011845
Pd     11.55667     11.07139     11.46481        -0.134908      0.042545     -0.077314
Pd     11.62415     13.40952     10.07103        -0.057889     -0.005836      0.029870
Pd     13.77791     12.61072     11.43786        -0.026526     -0.075084     -0.036887
Pd     11.72040     13.43754     12.84631        -0.088670     -0.065230      0.064015
Pd     11.65425     11.30689     14.49652        -0.011893      0.025205     -0.038889
Pd     11.54083      8.74637     13.25009        -0.010451     -0.036778     -0.050857
Pd      9.56755      9.64502     14.85862         0.022017      0.003484      0.019194
Pd      9.38461     14.03526     11.56771        -0.003473     -0.036572      0.089684
