9
# total energy = -63.87753934 eVH      2.54435      2.84570      0.00000        -0.000871      0.042668     -0.000000
H      0.02615      6.60918      0.00000         0.000871     -0.042668     -0.000000
C      1.23174      8.06741     -0.00000        -0.005340      0.019460      0.000000
C      1.33876      1.38748      0.00000         0.005340     -0.019460     -0.000000
C     -0.01678      8.82726     -0.00000         0.014239     -0.010924      0.000000
C      0.01678      0.69782     -0.00000        -0.014239      0.010924      0.000000
N      1.55854      2.70756     -0.00000         0.008369     -0.021381      0.000000
N      1.01196      6.74733      0.00000        -0.008369      0.021381     -0.000000
Ir      1.28525      4.72744      0.00000        -0.000000     -0.000000     -0.000000
