26
# total energy = -177.58883025 eVH      0.07428      6.30262      7.50000         0.005300      0.007244      0.000000
H      2.98436      1.80442      7.50000         0.002398     -0.021177     -0.000000
H      5.47651      5.38397      7.50000        -0.021882     -0.013109      0.000000
H      8.39743     -2.58897      7.50000        -0.005300     -0.007244      0.000000
H      5.48735      1.90923      7.50000        -0.002398      0.021177     -0.000000
H      2.99520     -1.67033      7.50000         0.021882      0.013109      0.000000
C      7.54522      2.58245      7.50000        -0.006244      0.011438      0.000000
C      1.43023     -0.23902      7.50000         0.002988     -0.028063     -0.000000
C      7.96774     -4.69818      7.50000         0.013054     -0.010548      0.000000
C      0.92649      1.13120      7.50000         0.006244     -0.011438      0.000000
C      7.04148      3.95267      7.50000        -0.002988      0.028063     -0.000000
C      0.50397      8.41182      7.50000        -0.013054      0.010548      0.000000
C      7.59454     -3.32255      7.50000        -0.007041     -0.004286      0.000000
C      6.52651      1.58133      7.50000        -0.008230      0.002775      0.000000
C      2.79324     -0.59277      7.50000        -0.004411     -0.020902      0.000000
C      0.87717      7.03619      7.50000         0.007041      0.004286     -0.000000
C      1.94520      2.13232      7.50000         0.008230     -0.002775     -0.000000
C      5.67847      4.30641      7.50000         0.004411      0.020902     -0.000000
O      6.40180     -2.80617      7.50000         0.004729      0.007626     -0.000000
O      6.72473      0.29929      7.50000        -0.017737      0.003064     -0.000000
O      3.89191      0.11942      7.50000        -0.011293     -0.001973     -0.000000
O      2.06991      6.51981      7.50000        -0.004729     -0.007626      0.000000
O      1.74698      3.41435      7.50000         0.017737     -0.003064     -0.000000
O      4.57980      3.59422      7.50000         0.011293      0.001973     -0.000000
Ir      5.42437     -1.16050      7.50000         0.026758     -0.006562      0.000000
Ir      3.04734      4.87414      7.50000        -0.026758      0.006562     -0.000000
