152
# total energy = -1002.81299964 eVH     10.35389      5.87395      7.64558         0.003195      0.134230      1.062269
H     10.62451     15.10445      7.64558        -0.003356     -0.086459      1.054323
H     10.62451      5.87395     13.33282         0.106522      0.010520     -1.145588
H     10.35389     15.10445     13.33282        -0.186565     -0.162537     -0.965471
H      7.64558     10.35389      5.87395         0.885168      0.349681     -0.233107
H      7.64558     10.62451     15.10445         0.733933      0.290176      0.070095
H     13.33282     10.62451      5.87395        -0.569843      0.183056      0.012495
H     13.33282     10.35389     15.10445        -0.675782     -0.136114      0.053546
H      5.87395      7.64558     10.35389        -0.406641      2.214442      0.331934
H     15.10445      7.64558     10.62451         0.059467      1.474898      0.100168
H      5.87395     13.33282     10.62451         0.003958     -1.017801     -0.189072
H     15.10445     13.33282     10.35389         0.103414     -1.170751     -0.338254
H      5.87395     10.35389      7.64558        -0.826383      0.334075      1.335096
H     15.10445     10.62451      7.64558         0.272741      0.680103      1.543013
H      5.87395     10.62451     13.33282        -0.576864      0.495702     -1.307106
H     15.10445     10.35389     13.33282         1.127859     -0.083706     -1.184353
H     10.35389      7.64558      5.87395         0.449068      1.182895     -0.051621
H     10.62451      7.64558     15.10445         0.293377      0.705140     -0.072278
H     10.62451     13.33282      5.87395        -0.420916     -0.981856      0.004826
H     10.35389     13.33282     15.10445        -0.136793     -0.498830     -0.149396
H      7.64558      5.87395     10.35389         0.757917     -0.156412      0.003508
H      7.64558     15.10445     10.62451         0.540914     -0.161092     -0.066752
H     13.33282      5.87395     10.62451        -1.001435      0.039082      0.266603
H     13.33282     15.10445     10.35389        -0.432290     -0.090456     -0.060537
H     12.45634     12.45634     19.01126         0.260409      0.235554     -0.246431
H     19.01126     19.01126     19.01126        -0.256481     -0.251584     -0.237175
H     19.01126     12.45634     12.45634        -0.256447      0.266957      0.232052
H     12.45634     19.01126     12.45634         0.264430     -0.265235      0.225480
C     10.35284      5.61067      6.59456        -0.129197     -0.917457     -0.967815
C     10.62556     15.36773      6.59456        -0.064816      0.490962     -0.889239
C     10.62556      5.61067     14.38384        -0.182815     -0.565369      1.524372
C     10.35284     15.36773     14.38384         0.160281      0.301826      0.971675
C      6.59456     10.35284      5.61067        -1.759994      0.170813     -1.060686
C      6.59456     10.62556     15.36773        -1.069683      0.222173      0.820437
C     14.38384     10.62556      5.61067         1.602194      0.150934     -0.923805
C     14.38384     10.35284     15.36773         1.161049      0.003006      0.760357
C      5.61067      6.59456     10.35284        -0.649425     -1.581438     -0.003145
C     15.36773      6.59456     10.62556         0.576552     -0.614753      0.130566
C      5.61067     14.38384     10.62556        -0.328861      1.110700      0.080739
C     15.36773     14.38384     10.35284         0.279509      1.360357      0.085266
C      5.61067     10.35284      6.59456        -0.380249     -0.009715     -1.662226
C     15.36773     10.62556      6.59456         0.482089      0.030304     -1.309916
C      5.61067     10.62556     14.38384        -0.226046     -0.060139      1.483873
C     15.36773     10.35284     14.38384         0.096090     -0.028926      1.727519
C     10.35284      6.59456      5.61067        -0.028059     -1.068599     -0.663599
C     10.62556      6.59456     15.36773         0.091587     -0.661184      0.632055
C     10.62556     14.38384      5.61067         0.128794      0.807700     -0.508776
C     10.35284     14.38384     15.36773        -0.043395      0.475185      0.456192
C      6.59456      5.61067     10.35284        -0.415171     -1.214428      0.005599
C      6.59456     15.36773     10.62556        -0.692230      0.653388     -0.006119
C     14.38384      5.61067     10.62556         0.591918     -0.824442     -0.099650
C     14.38384     15.36773     10.35284         0.436938      0.533159     -0.040421
C     10.40319      3.19606      7.29314        -0.022897      0.321598     -0.803236
C     10.35913      4.25547      6.23373        -0.053197     -0.529208      0.159559
C      0.08601      7.29314      7.29314        -0.011855     -0.489206     -0.323279
C      0.13007      6.23373      6.23373        -0.034241      0.396889      0.323428
C      0.08601      3.19606      3.19606         0.005923      0.411997      0.524320
C      0.13007      4.25547      4.25547        -0.000763     -0.447302     -0.439387
C     10.40319      7.29314      3.19606        -0.047093     -0.767545      0.261574
C     10.35913      6.23373      4.25547         0.009122      0.274131     -0.620514
C      7.29314     10.40319      3.19606        -0.710751     -0.014952      0.135517
C      6.23373     10.35913      4.25547         0.351523     -0.034867     -0.402396
C      7.29314      0.08601      7.29314        -0.535961     -0.065525     -0.281662
C      6.23373      0.13007      6.23373         0.524680     -0.157267      0.296952
C      3.19606      0.08601      3.19606         0.745762     -0.040735      0.210028
C      4.25547      0.13007      4.25547        -0.462461     -0.240954     -0.470855
C      3.19606     10.40319      7.29314         0.349169      0.002217     -0.179394
C      4.25547     10.35913      6.23373        -0.279049     -0.026831      0.376237
C      3.19606      7.29314     10.40319         0.283759     -0.423658      0.003345
C      4.25547      6.23373     10.35913        -0.849366      0.171312      0.077802
C      7.29314      7.29314      0.08601        -0.409076     -0.375366     -0.015830
C      6.23373      6.23373      0.13007         0.760626      0.070004     -0.017957
C      3.19606      3.19606      0.08601         0.744901      0.321949     -0.014605
C      4.25547      4.25547      0.13007        -0.309957     -0.684546     -0.066221
C      7.29314      3.19606     10.40319        -0.355725      0.423734      0.012039
C      6.23373      4.25547     10.35913         0.419631     -0.481538      0.071066
O     10.43466      3.58206      8.50569         0.080857      0.244183      0.702122
O     10.54374     17.39634      8.50569         0.017197     -0.153335      0.417694
O     10.54374      3.58206     12.47271         0.094630      0.174546     -0.541068
O     10.43466     17.39634     12.47271        -0.030231     -0.086086     -0.344726
O      8.50569     10.43466      3.58206         0.688563     -0.091692      0.227328
O      8.50569     10.54374     17.39634         0.632649     -0.018635     -0.239216
O     12.47271     10.54374      3.58206        -0.730300      0.075415      0.275099
O     12.47271     10.43466     17.39634        -0.498408      0.014046     -0.222248
O      3.58206      8.50569     10.43466         0.174327      0.578395     -0.021645
O     17.39634      8.50569     10.54374        -0.154445      0.516489      0.038545
O      3.58206     12.47271     10.54374         0.084445     -0.407613      0.033249
O     17.39634     12.47271     10.43466        -0.169904     -0.534240     -0.028888
O      3.58206     10.43466      8.50569         0.162094     -0.023096      0.335324
O     17.39634     10.54374      8.50569        -0.114594      0.070323      0.371098
O      3.58206     10.54374     12.47271         0.061526      0.051350     -0.265686
O     17.39634     10.43466     12.47271        -0.061186     -0.019181     -0.211492
O     10.43466      8.50569      3.58206        -0.090020      0.707487      0.183372
O     10.54374      8.50569     17.39634        -0.012858      0.593470     -0.192521
O     10.54374     12.47271      3.58206         0.033950     -0.500820      0.104315
O     10.43466     12.47271     17.39634        -0.019825     -0.387971     -0.058404
O      8.50569      3.58206     10.43466         0.578975      0.142438     -0.040300
O      8.50569     17.39634     10.54374         0.580867     -0.178978      0.036566
O     12.47271      3.58206     10.54374        -0.741726      0.170374      0.022136
O     12.47271     17.39634     10.43466        -0.524448     -0.142714     -0.027021
O     11.90042     11.90042     19.56718        -0.302754     -0.250980      0.274921
O     19.56718     19.56718     19.56718         0.302209      0.311316      0.272000
O     19.56718     11.90042     11.90042         0.313233     -0.305097     -0.238119
O     11.90042     19.56718     11.90042        -0.316054      0.329535     -0.220538
O      9.45224      1.03696      9.45224        -0.020996      0.097329     -0.074932
O      1.03696      9.45224      9.45224         0.047018     -0.017347     -0.084596
O      1.03696      1.03696      1.03696         0.034091      0.088178      0.103878
O      9.45224      9.45224      1.03696        -0.049458     -0.024217      0.132235
Zr     10.48920      2.52580     10.48920        -0.174686     -0.302028      0.081737
Zr     10.48920     18.45260     10.48920         0.076600      0.086671     -0.045830
Zr     10.48920     10.48920      2.52580         0.024089      0.066443     -0.386470
Zr     10.48920     10.48920     18.45260         0.010863     -0.054979      0.250415
Zr      2.52580     10.48920     10.48920        -0.086762     -0.120019     -0.035647
Zr     18.45260     10.48920     10.48920         0.096490     -0.008554     -0.060841
Pd     11.84052      8.56575     10.32867         0.122481     -0.007025      0.000807
Pd      7.18510     10.07846     10.41415         0.027315     -0.062520      0.022096
Pd      7.23278     12.46355     11.75718         0.052583     -0.078592      0.018861
Pd     12.03643     13.33989      7.35899        -0.067887      0.011715      0.075737
Pd     11.46831      8.26642      7.54727        -0.000629     -0.077986     -0.131656
Pd      8.78025      7.27697      7.24091         0.038055     -0.027096     -0.022417
Pd     11.62317     10.95111      6.19609        -0.095790      0.059943     -0.049537
Pd     13.72488      9.39110      7.63014         0.049949      0.159455     -0.068446
Pd      9.47331     11.84487      7.46579        -0.069844      0.001731      0.042879
Pd      7.09934      7.70697     11.78251         0.011182     -0.104209      0.179502
Pd      6.86808      7.67760      8.84851         0.145508     -0.026416     -0.068241
Pd      7.51037      9.95105     13.02563        -0.122780     -0.136821     -0.043207
Pd     11.45569      6.07493      9.14467         0.010928     -0.154921     -0.038962
Pd      9.46874      9.57724      5.98044         0.044631     -0.063292     -0.041488
Pd      9.32096     14.12299      8.80865        -0.027504      0.068564     -0.017621
Pd     11.49772      6.36803     11.77780         0.016002     -0.029070      0.009144
Pd      9.65778      9.33396      9.01035         0.011661      0.037655      0.058422
Pd      9.36322     11.75331     10.17224        -0.032454     -0.027289      0.097034
Pd      9.33115      7.09027     10.28653        -0.096489     -0.008857      0.059682
Pd      9.17780      7.26002     13.25053        -0.075622      0.018787      0.078167
Pd      9.55196      9.38964     11.63600        -0.106858      0.025305      0.008871
Pd     11.72613     10.91341      8.82779         0.118132     -0.010909      0.006256
Pd      7.13754     12.46997      8.95787         0.008438     -0.019785     -0.063035
Pd      7.58463      9.95168      7.87854        -0.085690      0.110629     -0.090025
Pd     13.84337      7.23120      8.97361        -0.060897     -0.145684     -0.026315
Pd     13.82864      7.85848     12.13313        -0.048383     -0.049572     -0.089593
Pd      9.44403     11.84087     13.02609        -0.003333     -0.045808     -0.003983
Pd     13.98254     12.27558      8.78096         0.150171      0.069302     -0.064267
Pd     13.47878     10.43529     12.81709        -0.128822     -0.043674     -0.086355
Pd     14.02140     10.02106     10.25834        -0.011041     -0.002205      0.006029
Pd     11.51866     11.13607     11.45539         0.124675     -0.043300      0.052824
Pd     11.61475     13.42810      9.99734         0.014672      0.011675      0.110462
Pd     13.73737     12.64311     11.46461        -0.007623      0.032308     -0.041008
Pd     11.68041     13.50475     12.87581         0.075123     -0.022190     -0.091800
Pd     11.57543     11.33496     14.44913         0.091676     -0.078070      0.016682
Pd     11.54150      8.72447     13.18177         0.075843      0.054016      0.005226
Pd      9.53492      9.60424     14.68957         0.040878      0.010685      0.144599
Pd      9.43099     14.10264     11.45959        -0.046619     -0.008949      0.114778
