152
# total energy = -1006.00341945 eVH     10.35389      5.87395      7.64558         0.259528      0.034433      0.638734
H     10.62451     15.10445      7.64558        -0.107319     -0.141006      0.512368
H     10.62451      5.87395     13.33282         0.484496      0.121647     -0.583518
H     10.35389     15.10445     13.33282         0.078988     -0.183152     -0.556432
H      7.64558     10.35389      5.87395         0.372559      0.094521      0.162032
H      7.64558     10.62451     15.10445         0.696872      0.471324     -0.039595
H     13.33282     10.62451      5.87395        -0.533598      0.422306      0.074499
H     13.33282     10.35389     15.10445        -0.803185     -0.093349      0.008694
H      5.87395      7.64558     10.35389         0.239840      0.685136     -0.403105
H     15.10445      7.64558     10.62451        -0.095284      0.479514      0.282908
H      5.87395     13.33282     10.62451         0.159832     -0.695701     -0.156381
H     15.10445     13.33282     10.35389        -0.011096     -1.021977     -0.326859
H      5.87395     10.35389      7.64558         0.251716      0.325430      0.762216
H     15.10445     10.62451      7.64558        -0.107403      0.403391      0.758787
H      5.87395     10.62451     13.33282         0.134035      0.327629     -0.690307
H     15.10445     10.35389     13.33282        -0.055864     -0.070426     -0.687143
H     10.35389      7.64558      5.87395         0.395247      1.055261     -0.009699
H     10.62451      7.64558     15.10445         0.536400      0.537321     -0.120750
H     10.62451     13.33282      5.87395        -0.398483     -0.847650      0.186100
H     10.35389     13.33282     15.10445        -0.045027     -0.433365     -0.216490
H      7.64558      5.87395     10.35389         0.848606      0.096984     -0.289514
H      7.64558     15.10445     10.62451         0.837780     -0.196102      0.013470
H     13.33282      5.87395     10.62451        -0.805608      0.197667      0.586985
H     13.33282     15.10445     10.35389        -0.443663     -0.112006     -0.129670
H     12.45634     12.45634     19.01126         0.235397      0.270218     -0.240025
H     19.01126     19.01126     19.01126        -0.262365     -0.240534     -0.261061
H     19.01126     12.45634     12.45634        -0.266817      0.268947      0.218273
H     12.45634     19.01126     12.45634         0.232075     -0.255185      0.279000
C     10.35284      5.61067      6.59456        -0.433939     -0.744579      0.208312
C     10.62556     15.36773      6.59456         0.061167      0.368562     -0.294993
C     10.62556      5.61067     14.38384        -0.333740     -0.359289     -0.306400
C     10.35284     15.36773     14.38384        -0.009210      0.330706      0.544234
C      6.59456     10.35284      5.61067        -0.201789     -0.001869     -0.401362
C      6.59456     10.62556     15.36773        -0.265554     -0.220714      0.809387
C     14.38384     10.62556      5.61067        -0.272471     -0.400997     -0.516970
C     14.38384     10.35284     15.36773         0.977378     -0.053529      0.256887
C      5.61067      6.59456     10.35284        -0.539882      0.006207      0.185151
C     15.36773      6.59456     10.62556         0.524299      0.026620     -0.251512
C      5.61067     14.38384     10.62556        -0.341492      0.971566      0.076620
C     15.36773     14.38384     10.35284         0.318912      1.032775      0.054871
C      5.61067     10.35284      6.59456        -0.178511     -0.327317     -0.627305
C     15.36773     10.62556      6.59456         0.448433     -0.290702      0.119369
C      5.61067     10.62556     14.38384        -0.729948     -0.355638     -0.057356
C     15.36773     10.35284     14.38384         0.387005     -0.060320      1.006258
C     10.35284      6.59456      5.61067        -0.203081     -0.195066     -0.659441
C     10.62556      6.59456     15.36773        -0.267664      0.121865      0.447135
C     10.62556     14.38384      5.61067         0.206964      1.067245     -0.347537
C     10.35284     14.38384     15.36773         0.028438      0.535736      0.433698
C      6.59456      5.61067     10.35284        -0.178797     -0.630200      0.232338
C      6.59456     15.36773     10.62556        -1.025035      0.301401      0.079572
C     14.38384      5.61067     10.62556         0.493010     -0.542635     -0.365048
C     14.38384     15.36773     10.35284         0.215271      0.453721     -0.102573
C     10.40319      3.19606      7.29314         0.006849      0.696484     -0.489686
C     10.35913      4.25547      6.23373         0.085751     -0.732373     -0.015501
C      0.08601      7.29314      7.29314        -0.043852     -0.410748     -0.308500
C      0.13007      6.23373      6.23373        -0.022338      0.082052      0.567607
C      0.08601      3.19606      3.19606        -0.018264      1.247651      0.279760
C      0.13007      4.25547      4.25547         0.048919     -0.776705     -0.151988
C     10.40319      7.29314      3.19606         0.009154     -0.347081      0.358809
C     10.35913      6.23373      4.25547         0.027433      0.015671     -0.906111
C      7.29314     10.40319      3.19606        -0.366194      0.019234      0.565301
C      6.23373     10.35913      4.25547         0.207591      0.047822     -0.132224
C      7.29314      0.08601      7.29314        -0.525667     -0.064029     -0.371916
C      6.23373      0.13007      6.23373         0.680236     -0.046463      0.492921
C      3.19606      0.08601      3.19606         0.664228     -0.037468      0.564644
C      4.25547      0.13007      4.25547        -0.572716     -0.080389     -0.555089
C      3.19606     10.40319      7.29314         0.484797     -0.021622     -0.781694
C      4.25547     10.35913      6.23373        -0.510337      0.027672      0.202535
C      3.19606      7.29314     10.40319         0.283232     -1.250042      0.037513
C      4.25547      6.23373     10.35913        -0.696840      0.099229      0.152430
C      7.29314      7.29314      0.08601        -0.406449     -0.370993     -0.028257
C      6.23373      6.23373      0.13007         0.468448      0.213720     -0.021555
C      3.19606      3.19606      0.08601         0.503437      0.371965     -0.039108
C      4.25547      4.25547      0.13007        -0.148642     -0.651664     -0.034584
C      7.29314      3.19606     10.40319        -0.321564      0.419985      0.074789
C      6.23373      4.25547     10.35913         0.253959     -0.696203      0.135688
O     10.43466      3.58206      8.50569        -0.013998      0.101848      0.509732
O     10.54374     17.39634      8.50569         0.036665     -0.174459      0.481825
O     10.54374      3.58206     12.47271         0.058057     -0.082385     -0.188566
O     10.43466     17.39634     12.47271        -0.038135     -0.182666     -0.568784
O      8.50569     10.43466      3.58206         0.341548      0.005472      0.037335
O      8.50569     10.54374     17.39634         0.632942      0.033313     -0.145425
O     12.47271     10.54374      3.58206        -0.672034      0.082578      0.091379
O     12.47271     10.43466     17.39634        -0.439828      0.027441     -0.111625
O      3.58206      8.50569     10.43466         0.183051      1.029811     -0.049529
O     17.39634      8.50569     10.54374        -0.162794      0.539585      0.076377
O      3.58206     12.47271     10.54374         0.083214     -0.361609      0.048869
O     17.39634     12.47271     10.43466        -0.157705     -0.545491     -0.022707
O      3.58206     10.43466      8.50569         0.075998     -0.061345      0.594786
O     17.39634     10.54374      8.50569        -0.110811      0.065872      0.521491
O      3.58206     10.54374     12.47271         0.058721      0.052476     -0.535910
O     17.39634     10.43466     12.47271        -0.216157     -0.040070     -0.590234
O     10.43466      8.50569      3.58206        -0.038724      0.474961      0.134014
O     10.54374      8.50569     17.39634         0.048058      0.529945     -0.161163
O     10.54374     12.47271      3.58206        -0.004086     -1.002386      0.207490
O     10.43466     12.47271     17.39634         0.042096     -0.735801     -0.174167
O      8.50569      3.58206     10.43466         0.506267      0.146982     -0.053690
O      8.50569     17.39634     10.54374         0.485780     -0.197829      0.013744
O     12.47271      3.58206     10.54374        -0.643156      0.236370      0.008225
O     12.47271     17.39634     10.43466        -0.212765      0.068268     -0.056506
O     11.90042     11.90042     19.56718        -0.239595     -0.288773      0.247788
O     19.56718     19.56718     19.56718         0.310094      0.295211      0.300036
O     19.56718     11.90042     11.90042         0.290115     -0.264847     -0.233226
O     11.90042     19.56718     11.90042        -0.242627      0.291028     -0.337052
O      9.45224      1.03696      9.45224        -0.020581      0.086311     -0.072619
O      1.03696      9.45224      9.45224         0.091015     -0.090778     -0.138879
O      1.03696      1.03696      1.03696         0.088999      0.190292      0.046881
O      9.45224      9.45224      1.03696        -0.112024     -0.099821      0.030652
Zr     10.48920      2.52580     10.48920        -0.132388     -0.291685     -0.035761
Zr     10.48920     18.45260     10.48920        -0.072215      0.214004      0.096166
Zr     10.48920     10.48920      2.52580         0.066058     -0.411782     -0.249671
Zr     10.48920     10.48920     18.45260        -0.269801     -0.089561      0.324643
Zr      2.52580     10.48920     10.48920        -0.375621      0.238229      0.305203
Zr     18.45260     10.48920     10.48920         0.241306      0.000156     -0.222268
Pd     13.60310      8.99203      9.19588        -0.007235     -0.002857     -0.004975
Pd      5.62956      9.86575     10.12438         0.002291      0.000179     -0.007062
Pd      6.77054     11.84599     11.70846        -0.000549     -0.000885      0.000045
Pd     12.05745     12.99301      7.35808        -0.006563     -0.002944      0.001083
Pd     11.87404      7.73667      7.45079        -0.000504     -0.008156     -0.005551
Pd      8.31696      6.82385      6.52121         0.001275     -0.012062     -0.006387
Pd     10.55643     11.16767      5.65589        -0.021164     -0.000801      0.001142
Pd     14.39828      8.54687      6.72560        -0.002561     -0.000333     -0.002962
Pd      9.66373     11.72868      8.15312         0.003205     -0.006193      0.009379
Pd      6.72377      6.78591     12.34272        -0.002424     -0.002151      0.002212
Pd      6.62923      8.29011      7.86484         0.014913      0.016657     -0.019552
Pd      6.52291      8.48970     14.39372         0.000769     -0.001486      0.004107
Pd     11.48104      6.50679      9.95011        -0.002707     -0.005587      0.000202
Pd      9.45460      9.19756      7.17354        -0.004338     -0.005109      0.001572
Pd      8.97847     13.99167      9.37009        -0.000028     -0.002658      0.007202
Pd      9.42891      7.36603     11.69439        -0.005068      0.000333     -0.005171
Pd     10.63388      8.95478      9.67058         0.005068     -0.005698     -0.009266
Pd      9.34045     11.57418     10.74089        -0.003190      0.005363      0.007367
Pd      8.85772      7.07189      9.10341        -0.003221     -0.001036     -0.006378
Pd      8.55433      6.58020     14.23210         0.000979     -0.000139     -0.001803
Pd      7.61274      9.31777     12.03880        -0.006216     -0.001347      0.006455
Pd     11.93729     10.37259      7.70407        -0.000473     -0.006121     -0.016489
Pd      7.12888     12.01403      9.06675         0.003039     -0.004253      0.000213
Pd      8.15321      9.62498      9.48464         0.005851     -0.002493      0.013391
Pd     14.00883      6.50160      8.52538        -0.000172     -0.003033     -0.000333
Pd     12.62824      8.40814     11.56308        -0.005539     -0.001676     -0.002746
Pd      8.75867     11.57015     13.41524        -0.001669     -0.000830      0.005192
Pd     13.86583     11.90670      8.96878        -0.005460     -0.004807     -0.002523
Pd     12.93014     10.70001     13.07608        -0.003704     -0.006389     -0.001592
Pd     14.75871     10.42596     11.12117        -0.005580     -0.006654     -0.002460
Pd     12.04534     10.89626     10.53867        -0.008731     -0.000501     -0.002636
Pd     11.44874     13.34997      9.92669         0.000851      0.003130      0.003679
Pd     13.59691     12.90961     11.62620         0.001137     -0.006590     -0.000817
Pd     11.11268     12.62983     12.54563        -0.000258      0.000028      0.002727
Pd     10.94197     11.06738     14.81809         0.002073     -0.001071      0.000870
Pd     10.49514      9.71871     12.37711        -0.006495     -0.000565     -0.003053
Pd      9.08416      9.14132     14.43772         0.001572     -0.000938      0.003831
Pd      8.79399     13.86605     12.07333        -0.002708      0.000278      0.009597
