26
# total energy = -205.61071349 eVC      0.70342      1.25210      7.50000        -0.000827     -0.000553     -0.000000
C     10.79672      6.56672      7.50000         0.000082     -0.004640     -0.000000
C      0.73799     11.42813      7.50000         0.004997      0.002082     -0.000000
C     11.53073      5.33332      7.50000         0.000827      0.000553     -0.000000
C      1.43743      0.01870      7.50000        -0.000082      0.004640     -0.000000
C     11.49616     -4.84271      7.50000        -0.004997     -0.002082     -0.000000
C     10.79589     -3.64878      7.50000         0.000394      0.003347      0.000000
C     10.85608      4.12462      7.50000        -0.001089      0.000989     -0.000000
C      2.82617      0.04381      7.50000        -0.012424     -0.007103      0.000000
C      1.43826     10.23421      7.50000        -0.000394     -0.003347     -0.000000
C      1.37807      2.46080      7.50000         0.001089     -0.000989      0.000000
C      9.40798      6.54161      7.50000         0.012424      0.007103     -0.000000
N      7.76351      0.26065      7.50000        -0.010825      0.001406     -0.000000
N      4.47064      6.32477      7.50000         0.010825     -0.001406     -0.000000
N      4.00851      0.08341      7.50000         0.006922     -0.002630      0.000000
N     10.23050     -2.60921      7.50000        -0.000110     -0.003945      0.000000
N     10.29617      3.08220      7.50000         0.001206     -0.000967      0.000000
N      8.22564      6.50201      7.50000        -0.006922      0.002630      0.000000
N      2.00365      9.19464      7.50000         0.000110      0.003945      0.000000
N      1.93798      3.50322      7.50000        -0.001206      0.000967      0.000000
Ir      2.99312      7.53229      7.50000         0.001538     -0.002727     -0.000000
Ir      2.98157      5.13103      7.50000         0.003898     -0.001516     -0.000000
Ir      6.29797      6.40887      7.50000         0.009714     -0.004078     -0.000000
Ir      9.24103     -0.94687      7.50000        -0.001538      0.002727     -0.000000
Ir      9.25258      1.45440      7.50000        -0.003898      0.001516     -0.000000
Ir      5.93618      0.17655      7.50000        -0.009714      0.004078     -0.000000
