152
# total energy = -1060.14852161 eVH     10.35389      5.87395      7.64558        -0.316836      0.100806      1.089470
H     10.62451     15.10445      7.64558         0.079731     -0.068999      0.895956
H     10.62451      5.87395     13.33282        -0.270436      0.072584     -0.784832
H     10.35389     15.10445     13.33282         0.094871     -0.302953     -0.824591
H      7.64558     10.35389      5.87395         0.895040     -0.203833      0.206400
H      7.64558     10.62451     15.10445         0.316853     -0.028199     -0.063161
H     13.33282     10.62451      5.87395        -0.885948      0.219511      0.221927
H     13.33282     10.35389     15.10445        -0.283293     -0.029510     -0.061361
H      5.87395      7.64558     10.35389         0.092444      0.422391     -0.011717
H     15.10445      7.64558     10.62451        -0.041334      0.434602     -0.033308
H      5.87395     13.33282     10.62451        -0.018150     -0.968681      0.078048
H     15.10445     13.33282     10.35389        -0.083028     -0.328456      0.000907
H      5.87395     10.35389      7.64558         0.318144      0.061822      0.371771
H     15.10445     10.62451      7.64558        -0.119899     -0.158570      0.666376
H      5.87395     10.62451     13.33282        -0.064785      0.452799     -0.602114
H     15.10445     10.35389     13.33282         0.228678     -0.637453     -0.874284
H     10.35389      7.64558      5.87395        -0.022442      0.500169      0.345259
H     10.62451      7.64558     15.10445         0.333243      0.793113     -0.006392
H     10.62451     13.33282      5.87395         0.151769     -0.567988      0.201623
H     10.35389     13.33282     15.10445         0.031753     -0.291405     -0.167057
H      7.64558      5.87395     10.35389         0.370523      0.113241      0.063959
H      7.64558     15.10445     10.62451         0.388825     -0.128218      0.178359
H     13.33282      5.87395     10.62451        -0.307931      0.137430     -0.014496
H     13.33282     15.10445     10.35389        -0.660378     -0.106027      0.135213
H     12.45634     12.45634     19.01126         0.258823      0.272557     -0.226249
H     19.01126     19.01126     19.01126        -0.248382     -0.268212     -0.245123
H     19.01126     12.45634     12.45634        -0.249432      0.271973      0.237308
H     12.45634     19.01126     12.45634         0.289623     -0.235280      0.235443
C     10.35284      5.61067      6.59456         0.402640     -0.418867     -1.357556
C     10.62556     15.36773      6.59456        -0.170922      0.607515     -0.660051
C     10.62556      5.61067     14.38384         0.364775     -0.276947      0.777249
C     10.35284     15.36773     14.38384        -0.205395      0.217255      1.028028
C      6.59456     10.35284      5.61067        -1.396578      0.033934     -0.229641
C      6.59456     10.62556     15.36773        -0.664311      0.063603      0.358127
C     14.38384     10.62556      5.61067         1.308062     -0.186300     -0.630358
C     14.38384     10.35284     15.36773         0.317853     -0.130148      0.350819
C      5.61067      6.59456     10.35284        -0.273847     -0.672747     -0.030521
C     15.36773      6.59456     10.62556         0.408671     -0.855336      0.028993
C      5.61067     14.38384     10.62556        -0.146321      1.192223     -0.219499
C     15.36773     14.38384     10.35284         0.503220      0.703366     -0.035754
C      5.61067     10.35284      6.59456        -0.373145     -0.102250     -0.774246
C     15.36773     10.62556      6.59456         0.403758      0.104205     -0.681919
C      5.61067     10.62556     14.38384        -0.408323     -0.165057      1.219054
C     15.36773     10.35284     14.38384         0.235597      0.223070      1.418689
C     10.35284      6.59456      5.61067        -0.068839     -0.746623     -0.549098
C     10.62556      6.59456     15.36773        -0.143949     -0.982089      0.376418
C     10.62556     14.38384      5.61067        -0.493304      0.379710     -0.738364
C     10.35284     14.38384     15.36773        -0.171916      0.740656      0.492718
C      6.59456      5.61067     10.35284        -0.563331     -0.337735      0.003217
C      6.59456     15.36773     10.62556        -0.364926      0.446286      0.063008
C     14.38384      5.61067     10.62556         0.432659     -0.308474      0.006405
C     14.38384     15.36773     10.35284         1.130361      0.486390     -0.077498
C     10.40319      3.19606      7.29314        -0.007905      0.783998     -0.334763
C     10.35913      4.25547      6.23373         0.024734     -0.380599      0.291799
C      0.08601      7.29314      7.29314        -0.019199     -0.380506     -0.504799
C      0.13007      6.23373      6.23373        -0.048737      0.881346      0.093809
C      0.08601      3.19606      3.19606        -0.006999      0.695088      0.258555
C      0.13007      4.25547      4.25547         0.044796     -0.265992     -0.548333
C     10.40319      7.29314      3.19606        -0.064627     -1.114217      0.619995
C     10.35913      6.23373      4.25547        -0.046603      0.347466     -0.203785
C      7.29314     10.40319      3.19606        -1.091887     -0.055573      0.199427
C      6.23373     10.35913      4.25547         0.378168      0.101950     -0.521676
C      7.29314      0.08601      7.29314        -0.475801      0.028738     -0.444435
C      6.23373      0.13007      6.23373         0.178742      0.120120      0.121137
C      3.19606      0.08601      3.19606         0.701294      0.023668      0.169128
C      4.25547      0.13007      4.25547        -0.172893     -0.050725     -0.366883
C      3.19606     10.40319      7.29314         0.371013     -0.026714     -0.949772
C      4.25547     10.35913      6.23373        -0.129109     -0.053542      0.114551
C      3.19606      7.29314     10.40319         0.614244     -0.397972      0.002017
C      4.25547      6.23373     10.35913        -0.116293      0.178289      0.011835
C      7.29314      7.29314      0.08601        -0.427262     -0.295036     -0.015498
C      6.23373      6.23373      0.13007         0.149091      0.155528     -0.062241
C      3.19606      3.19606      0.08601         0.291323      0.491765     -0.024735
C      4.25547      4.25547      0.13007        -0.403623     -0.240898     -0.032195
C      7.29314      3.19606     10.40319        -0.281452      0.593635     -0.009850
C      6.23373      4.25547     10.35913         0.017891     -0.093779      0.016159
O     10.43466      3.58206      8.50569        -0.026447      0.073885      0.302680
O     10.54374     17.39634      8.50569         0.063010     -0.123530      0.592577
O     10.54374      3.58206     12.47271         0.028072      0.101466     -0.398474
O     10.43466     17.39634     12.47271         0.094679     -0.062852     -0.434598
O      8.50569     10.43466      3.58206         0.733055     -0.072310      0.014467
O      8.50569     10.54374     17.39634         0.530632      0.060917     -0.102558
O     12.47271     10.54374      3.58206        -0.656385      0.112048      0.211076
O     12.47271     10.43466     17.39634        -0.278904      0.005035      0.036210
O      3.58206      8.50569     10.43466         0.034037      0.442783     -0.063362
O     17.39634      8.50569     10.54374        -0.055295      0.446666      0.054792
O      3.58206     12.47271     10.54374         0.104578     -0.588596      0.002831
O     17.39634     12.47271     10.43466        -0.182846     -0.739305     -0.048524
O      3.58206     10.43466      8.50569         0.209165     -0.060473      0.806362
O     17.39634     10.54374      8.50569        -0.074749      0.069942      0.491965
O      3.58206     10.54374     12.47271        -0.004278     -0.005171     -0.260144
O     17.39634     10.43466     12.47271         0.034874     -0.009521     -0.231229
O     10.43466      8.50569      3.58206        -0.106950      0.530704     -0.103289
O     10.54374      8.50569     17.39634         0.058073      0.510620     -0.084368
O     10.54374     12.47271      3.58206         0.102608     -0.639130      0.128738
O     10.43466     12.47271     17.39634        -0.065097     -0.693569     -0.277195
O      8.50569      3.58206     10.43466         0.395303      0.023970     -0.045846
O      8.50569     17.39634     10.54374         0.638686     -0.154334      0.045247
O     12.47271      3.58206     10.54374        -0.516436      0.121576      0.027874
O     12.47271     17.39634     10.43466        -0.623524     -0.124798      0.041383
O     11.90042     11.90042     19.56718        -0.277706     -0.303217      0.221609
O     19.56718     19.56718     19.56718         0.307516      0.321610      0.296925
O     19.56718     11.90042     11.90042         0.282389     -0.324336     -0.235529
O     11.90042     19.56718     11.90042        -0.313796      0.228973     -0.201254
O      9.45224      1.03696      9.45224        -0.075949      0.087146     -0.079533
O      1.03696      9.45224      9.45224         0.100489     -0.108941     -0.061619
O      1.03696      1.03696      1.03696         0.078987      0.054429      0.098213
O      9.45224      9.45224      1.03696        -0.059688     -0.125389      0.135277
Zr     10.48920      2.52580     10.48920         0.043898     -0.093161      0.123094
Zr     10.48920     18.45260     10.48920        -0.182024      0.247351     -0.360159
Zr     10.48920     10.48920      2.52580         0.112222      0.357803     -0.345719
Zr     10.48920     10.48920     18.45260        -0.080155     -0.261090      0.232513
Zr      2.52580     10.48920     10.48920        -0.241924      0.130978      0.246054
Zr     18.45260     10.48920     10.48920         0.196847     -0.137416     -0.019563
Pd      9.36009     14.29858      9.31324        -0.002097      0.025290     -0.026013
Pd      8.59222     13.64496     13.04014         0.008328      0.017820      0.028938
Pd     12.02276     14.40335      8.74462         0.016412     -0.006168      0.007934
Pd     12.75850     12.87911     10.68274        -0.037535     -0.001467      0.038514
Pd     12.11915      7.19197     12.67593         0.004190     -0.012561     -0.001105
Pd     11.15736     14.90239     11.45267        -0.018073      0.028084     -0.014404
Pd     10.03754     12.55177     11.08672        -0.023517      0.031168     -0.029326
Pd     13.47852     12.15295      7.98356         0.011953      0.007540      0.007782
Pd     11.47956     11.54259      6.10817         0.006756      0.013442     -0.001587
Pd      7.94147      8.38043      7.52375         0.003121     -0.028944     -0.002704
Pd      8.71957     11.75649      6.84384        -0.003988      0.008441      0.009821
Pd     10.32217      9.45250      8.15076        -0.019241     -0.003924      0.008715
Pd      8.49684     14.46386      6.79130        -0.009370      0.002076     -0.019942
Pd     12.39589      9.01733      6.56618        -0.006810      0.021327      0.027899
Pd      9.71718      9.60970      5.57311         0.004261      0.003943      0.006884
Pd      6.81775      9.45425     12.14116         0.017103      0.001486      0.004676
Pd     12.17790      6.74399      7.95354         0.014979      0.014051      0.006619
Pd      5.91263     10.48357      9.69385         0.010496     -0.001118      0.011046
Pd      7.55113      7.24094     13.40896        -0.009786     -0.016872     -0.011845
Ir     11.73702      9.77494     13.06587        -0.055938      0.003857      0.028140
Ir     13.55091      9.05490     11.47422        -0.000805      0.000104      0.010208
Ir      9.42517      8.86439     14.01071        -0.007892      0.053986     -0.019900
Ir     10.50873     11.01813     14.89029        -0.023224     -0.060841      0.030997
Ir      7.27147     12.01569     11.34068        -0.025108      0.004120     -0.031986
Ir     14.64936     10.91063     10.14969        -0.002008      0.031980      0.033480
Ir     12.16054     10.57327      9.68090        -0.010306      0.007908     -0.015577
Ir      8.74702     11.00526     12.98979         0.090105     -0.048202      0.048510
Ir     10.10459      9.91652     11.17338         0.000241      0.014270      0.002102
Ir     13.73823     11.41651     12.48813        -0.026851      0.010245      0.057260
Ir     11.59146     12.35397     13.08979        -0.082996     -0.032793      0.009712
Ir      8.49803     11.09463      9.33494        -0.020083      0.054345     -0.011449
Ir     11.59059      8.02748     10.14411         0.015333     -0.001372     -0.000516
Ir      7.21696     13.03097      8.65567         0.016625     -0.006666      0.008432
Ir      9.54658      6.96241      9.23870         0.006303      0.007504      0.001272
Ir      8.05232      8.76396     10.05898        -0.015816     -0.021593     -0.006003
Ir     10.71912     12.12280      8.50228        -0.000335     -0.005061     -0.010083
Ir      9.51292      7.57145     11.75563         0.003029      0.009044      0.006544
Ir     13.66337      8.80212      8.83965         0.026137     -0.016106      0.019030
