152
# total energy = -1022.84080795 eVH     10.35389      5.87395      7.64558         0.476985      0.030902      0.914516
H     10.62451     15.10445      7.64558        -0.042694      0.037884      0.762251
H     10.62451      5.87395     13.33282         0.142805      0.116099     -0.603673
H     10.35389     15.10445     13.33282        -0.267577     -0.076925     -0.566328
H      7.64558     10.35389      5.87395         0.334451     -0.037772      0.191204
H      7.64558     10.62451     15.10445         0.615421     -0.186124     -0.141098
H     13.33282     10.62451      5.87395        -0.862797     -0.326084      0.166063
H     13.33282     10.35389     15.10445        -0.468101     -0.092896     -0.058496
H      5.87395      7.64558     10.35389         0.122585      1.131434     -0.142617
H     15.10445      7.64558     10.62451        -0.168417      0.402200     -0.085903
H      5.87395     13.33282     10.62451         0.143338     -0.407031     -0.071269
H     15.10445     13.33282     10.35389        -0.077511     -0.967201     -0.201030
H      5.87395     10.35389      7.64558         0.129544      0.037822      0.481895
H     15.10445     10.62451      7.64558         0.130814     -0.220119      0.801746
H      5.87395     10.62451     13.33282         0.269992     -0.028499     -0.395421
H     15.10445     10.35389     13.33282        -0.144574      0.010034     -0.626021
H     10.35389      7.64558      5.87395         0.071518      0.835359      0.119294
H     10.62451      7.64558     15.10445         0.027092      0.558695     -0.143447
H     10.62451     13.33282      5.87395         0.073562     -0.602101      0.182812
H     10.35389     13.33282     15.10445        -0.249939     -0.891028     -0.110076
H      7.64558      5.87395     10.35389         0.527279      0.037083     -0.138774
H      7.64558     15.10445     10.62451         0.910525     -0.210217      0.301017
H     13.33282      5.87395     10.62451        -0.435901      0.187422     -0.058801
H     13.33282     15.10445     10.35389        -0.998653     -0.099798      0.244272
H     12.45634     12.45634     19.01126         0.267324      0.257717     -0.224029
H     19.01126     19.01126     19.01126        -0.247730     -0.234975     -0.262362
H     19.01126     12.45634     12.45634        -0.241660      0.270311      0.238940
H     12.45634     19.01126     12.45634         0.210776     -0.283425      0.252945
C     10.35284      5.61067      6.59456        -0.131023     -0.426682     -0.426007
C     10.62556     15.36773      6.59456         0.020658      0.347059     -1.143160
C     10.62556      5.61067     14.38384        -0.025267     -0.222666      0.721988
C     10.35284     15.36773     14.38384         0.190856      0.771528      0.134124
C      6.59456     10.35284      5.61067        -0.424635     -0.041238     -0.184336
C      6.59456     10.62556     15.36773        -0.786508      0.147752      0.350186
C     14.38384     10.62556      5.61067         0.647841      0.280685     -0.365778
C     14.38384     10.35284     15.36773         0.742916     -0.123348      0.430173
C      5.61067      6.59456     10.35284        -0.428247     -0.771721      0.268832
C     15.36773      6.59456     10.62556         0.195436     -0.469633      0.046343
C      5.61067     14.38384     10.62556        -0.255411      0.381119     -0.022954
C     15.36773     14.38384     10.35284         0.400931      0.144676      0.191314
C      5.61067     10.35284      6.59456        -0.307903     -0.011983     -0.890210
C     15.36773     10.62556      6.59456         0.566214     -0.146333     -1.233241
C      5.61067     10.62556     14.38384        -0.464055      0.007671      0.906898
C     15.36773     10.35284     14.38384         0.530504     -0.175986      1.251949
C     10.35284      6.59456      5.61067        -0.035255     -0.911534     -0.677679
C     10.62556      6.59456     15.36773         0.043669     -0.667884      0.300384
C     10.62556     14.38384      5.61067         0.041287      1.260971     -0.693581
C     10.35284     14.38384     15.36773         0.091885      0.596065      0.666142
C      6.59456      5.61067     10.35284        -0.226582     -0.895855      0.127981
C      6.59456     15.36773     10.62556        -1.730320      0.495873      0.043276
C     14.38384      5.61067     10.62556         0.579420     -0.222769     -0.006950
C     14.38384     15.36773     10.35284         0.168335      0.551977     -0.242591
C     10.40319      3.19606      7.29314         0.016887      0.923596     -0.253677
C     10.35913      4.25547      6.23373        -0.052392     -0.362874      0.624776
C      0.08601      7.29314      7.29314        -0.009034     -0.236409     -0.470379
C      0.13007      6.23373      6.23373         0.001375      0.116687      0.205874
C      0.08601      3.19606      3.19606        -0.016836      0.648739      0.179391
C      0.13007      4.25547      4.25547        -0.090921     -0.198369     -0.169998
C     10.40319      7.29314      3.19606        -0.000868     -0.692797      0.527411
C     10.35913      6.23373      4.25547        -0.005094      0.525243     -0.383404
C      7.29314     10.40319      3.19606        -0.347584      0.022897      0.850908
C      6.23373     10.35913      4.25547         0.212058      0.015481     -0.144520
C      7.29314      0.08601      7.29314        -0.309206     -0.046529     -0.269053
C      6.23373      0.13007      6.23373         0.264905     -0.059162      0.293697
C      3.19606      0.08601      3.19606         0.434024     -0.052500      1.300774
C      4.25547      0.13007      4.25547        -0.117021     -0.027795     -0.460403
C      3.19606     10.40319      7.29314         0.713434      0.015232     -0.263135
C      4.25547     10.35913      6.23373        -0.137472      0.034612      0.109909
C      3.19606      7.29314     10.40319         0.601338     -1.263000      0.026764
C      4.25547      6.23373     10.35913        -0.718480      0.834407      0.048039
C      7.29314      7.29314      0.08601        -0.660433     -0.170236     -0.022472
C      6.23373      6.23373      0.13007         0.172185      0.270015     -0.009483
C      3.19606      3.19606      0.08601         0.241624      0.251059     -0.019526
C      4.25547      4.25547      0.13007        -0.052233     -0.037028      0.012489
C      7.29314      3.19606     10.40319        -0.373034      0.786239      0.016482
C      6.23373      4.25547     10.35913         0.871270     -0.162532      0.012216
O     10.43466      3.58206      8.50569        -0.050356      0.028797      0.315985
O     10.54374     17.39634      8.50569        -0.024431     -0.182767      0.604416
O     10.54374      3.58206     12.47271         0.055354      0.061114     -0.322159
O     10.43466     17.39634     12.47271        -0.024544     -0.123981     -0.580330
O      8.50569     10.43466      3.58206         0.385431     -0.023506     -0.011150
O      8.50569     10.54374     17.39634         0.470241      0.053704     -0.142590
O     12.47271     10.54374      3.58206        -0.282933      0.049800     -0.078801
O     12.47271     10.43466     17.39634        -0.857045      0.021451     -0.223637
O      3.58206      8.50569     10.43466         0.040731      0.915914      0.038991
O     17.39634      8.50569     10.54374        -0.038404      0.337520      0.078243
O      3.58206     12.47271     10.54374         0.063966     -0.420607      0.063617
O     17.39634     12.47271     10.43466        -0.169843     -0.772792      0.019075
O      3.58206     10.43466      8.50569        -0.057287     -0.066334      0.223755
O     17.39634     10.54374      8.50569        -0.136242      0.042253      0.458094
O      3.58206     10.54374     12.47271        -0.020596     -0.051723     -0.891062
O     17.39634     10.43466     12.47271        -0.198026      0.041636     -0.761601
O     10.43466      8.50569      3.58206         0.044270      0.685503      0.192683
O     10.54374      8.50569     17.39634         0.053848      0.430929     -0.078303
O     10.54374     12.47271      3.58206        -0.009540     -0.730856      0.228362
O     10.43466     12.47271     17.39634         0.050498     -0.859669     -0.275947
O      8.50569      3.58206     10.43466         0.493772      0.077723     -0.038804
O      8.50569     17.39634     10.54374         0.657246     -0.253619     -0.061603
O     12.47271      3.58206     10.54374        -0.487162      0.163440      0.039937
O     12.47271     17.39634     10.43466        -0.527089     -0.038935     -0.030349
O     11.90042     11.90042     19.56718        -0.304649     -0.312003      0.263339
O     19.56718     19.56718     19.56718         0.287297      0.271678      0.321088
O     19.56718     11.90042     11.90042         0.280353     -0.330377     -0.244189
O     11.90042     19.56718     11.90042        -0.228319      0.291165     -0.240876
O      9.45224      1.03696      9.45224        -0.074462      0.049461     -0.066558
O      1.03696      9.45224      9.45224         0.056720     -0.145090     -0.056509
O      1.03696      1.03696      1.03696         0.043681      0.032635      0.187474
O      9.45224      9.45224      1.03696        -0.039644     -0.091901      0.122639
Zr     10.48920      2.52580     10.48920        -0.007845     -0.074393     -0.022157
Zr     10.48920     18.45260     10.48920         0.059353      0.306573     -0.070706
Zr     10.48920     10.48920      2.52580        -0.101458      0.010947     -0.373727
Zr     10.48920     10.48920     18.45260        -0.138697     -0.162261      0.328119
Zr      2.52580     10.48920     10.48920        -0.347058      0.316862     -0.465369
Zr     18.45260     10.48920     10.48920         0.238014      0.039039     -0.262461
Pd      9.04339     10.26901     13.34214        -0.014191     -0.006061     -0.004580
Pd     10.58587      9.72757     10.99619        -0.006866      0.000091     -0.068999
Pd     13.75900      8.55420     12.67916         0.043136     -0.010037      0.011568
Pd     11.00044     11.08262     15.03795        -0.001198     -0.036041     -0.053315
Pd     12.86607     11.19861     13.04370         0.012831      0.013112     -0.000492
Pd     14.97574     10.93328     11.34319         0.008229      0.021542     -0.005074
Pd      6.66236      7.43676     12.33655        -0.007787      0.020167      0.007900
Pd      9.22045      7.26655     10.14002         0.002806      0.006915     -0.028452
Pd      9.27273      7.61953     12.80706        -0.000227     -0.009531     -0.014928
Pd     11.69721      7.29351     11.46757         0.001381      0.002608     -0.012713
Pd     11.37890      7.99747      8.86022         0.036401     -0.002760      0.002530
Pd      7.26053     11.84009     11.96511         0.006180     -0.003073     -0.025906
Pd      8.90611     14.67728      9.33977         0.037603      0.033139      0.022968
Pd      8.41770     12.66733     14.33024         0.006864     -0.016975     -0.031902
Pd     13.51502     14.07909      8.56386         0.097685      0.040773     -0.042925
Pd     10.97859     13.33220      8.52298         0.089428      0.035783      0.034266
Pd     14.08216     11.51144      8.92387         0.005711      0.049582     -0.009589
Pd      8.62739     14.11157     12.10381         0.025646     -0.025694      0.011186
Pd     12.24525     13.75277     14.02801        -0.023547     -0.015965     -0.009780
Pd     11.17030     14.42682     11.14860         0.013308     -0.013794      0.061317
Pd     14.05870     13.55755     12.17148        -0.008167      0.018485     -0.001002
Pd     12.31382     12.13643     10.68331        -0.004151     -0.012824      0.010685
Pd     12.64919     12.31307      6.71595         0.025875      0.060799     -0.004832
Pd     13.63927      8.93329      7.91835         0.061065      0.001043     -0.033378
Pd      6.85928      8.46770      8.86142         0.016328      0.016032     -0.009545
Pd      5.52812      9.93313     11.27082         0.004930      0.040857     -0.051494
Pd      9.13363      9.75713      8.30060         0.022804     -0.025588     -0.000907
Pd      8.82662      7.24416      7.48268        -0.022922     -0.018257     -0.046210
Pd      9.52596     12.08306     10.43331         0.027001      0.004780      0.018195
Pd     11.52181     10.70852      8.58116         0.016699      0.022370     -0.025479
Pd     11.22808      9.25626      6.43966         0.038840     -0.049267     -0.041252
Pd      9.88612     11.56581      6.37707         0.041744     -0.034371     -0.028657
Ir     11.35917      9.11672     13.36940        -0.013981      0.024152      0.000947
Ir     13.07221      9.47896     10.38651        -0.000315     -0.031825      0.020638
Ir     10.54043     12.35940     12.71712        -0.028182      0.007078      0.028661
Ir      7.13977     10.98846      9.51073         0.040829      0.023044     -0.010273
Ir      8.41010     12.46511      8.19279        -0.003940     -0.004488      0.003437
Ir      8.06812      9.31131     11.12203         0.005315      0.005380      0.017067
