152
# total energy = -1024.24615999 eVH     10.35389      5.87395      7.64558         0.513616      0.048333      0.752272
H     10.62451     15.10445      7.64558         0.016255     -0.184684      0.578338
H     10.62451      5.87395     13.33282         0.126526      0.157938     -0.618590
H     10.35389     15.10445     13.33282        -0.396389     -0.064850     -0.735241
H      7.64558     10.35389      5.87395         0.335829     -0.001285      0.182330
H      7.64558     10.62451     15.10445         0.818393     -0.303171     -0.036931
H     13.33282     10.62451      5.87395        -0.758514      0.006202      0.163290
H     13.33282     10.35389     15.10445        -0.915308     -0.433773      0.247410
H      5.87395      7.64558     10.35389         0.214703      0.599519     -0.001899
H     15.10445      7.64558     10.62451        -0.144150      0.400929     -0.049631
H      5.87395     13.33282     10.62451         0.165861     -0.508211     -0.099463
H     15.10445     13.33282     10.35389        -0.117102     -1.127925     -0.001619
H      5.87395     10.35389      7.64558         0.136980      0.117244      0.480285
H     15.10445     10.62451      7.64558         0.054110      0.125183      1.080472
H      5.87395     10.62451     13.33282         0.118530     -0.021562     -0.418432
H     15.10445     10.35389     13.33282        -0.087294     -0.157696     -0.612972
H     10.35389      7.64558      5.87395         0.093051      0.925841      0.223074
H     10.62451      7.64558     15.10445         0.015789      0.284780     -0.179472
H     10.62451     13.33282      5.87395        -0.076289     -0.503915      0.316514
H     10.35389     13.33282     15.10445        -0.427262     -0.660162     -0.040537
H      7.64558      5.87395     10.35389         0.471362      0.120401      0.058924
H      7.64558     15.10445     10.62451         0.866867     -0.264161     -0.016663
H     13.33282      5.87395     10.62451        -0.561049      0.147517     -0.084321
H     13.33282     15.10445     10.35389        -0.609096     -0.068976      0.215198
H     12.45634     12.45634     19.01126         0.239698      0.275837     -0.234308
H     19.01126     19.01126     19.01126        -0.254060     -0.244952     -0.243835
H     19.01126     12.45634     12.45634        -0.260529      0.269816      0.220944
H     12.45634     19.01126     12.45634         0.227067     -0.262573      0.246256
C     10.35284      5.61067      6.59456        -0.180100     -0.611307      0.071658
C     10.62556     15.36773      6.59456        -0.016878      0.409562     -0.763542
C     10.62556      5.61067     14.38384        -0.026618     -0.086440      0.746620
C     10.35284     15.36773     14.38384         0.166052      0.708391      0.162924
C      6.59456     10.35284      5.61067        -0.387655     -0.027290     -0.267623
C      6.59456     10.62556     15.36773        -1.003087      0.315408      0.413487
C     14.38384     10.62556      5.61067         0.439615      0.292594     -0.609859
C     14.38384     10.35284     15.36773         1.025771     -0.008948      0.384064
C      5.61067      6.59456     10.35284        -0.375325     -0.511810      0.215776
C     15.36773      6.59456     10.62556         0.190950     -0.524164      0.032616
C      5.61067     14.38384     10.62556        -0.157575      0.547139      0.006670
C     15.36773     14.38384     10.35284         0.330923      0.007530     -0.135207
C      5.61067     10.35284      6.59456        -0.305847     -0.058151     -0.890511
C     15.36773     10.62556      6.59456         0.721026     -0.297275     -1.118798
C      5.61067     10.62556     14.38384        -0.466951      0.000951      0.302564
C     15.36773     10.35284     14.38384         0.678458     -0.123272      1.113838
C     10.35284      6.59456      5.61067        -0.247468     -0.526808     -0.819337
C     10.62556      6.59456     15.36773         0.050400     -0.297664      0.098009
C     10.62556     14.38384      5.61067         0.134934      1.225182     -0.432512
C     10.35284     14.38384     15.36773         0.210421      0.118023      0.670644
C      6.59456      5.61067     10.35284        -0.373970     -0.723620      0.062490
C      6.59456     15.36773     10.62556        -1.222288      0.281073      0.066126
C     14.38384      5.61067     10.62556         0.875924     -0.271875      0.025920
C     14.38384     15.36773     10.35284        -0.497580      0.732544     -0.379356
C     10.40319      3.19606      7.29314        -0.018791      0.847638     -0.396073
C     10.35913      4.25547      6.23373         0.024639     -0.478992      0.584742
C      0.08601      7.29314      7.29314        -0.016742     -0.494773     -0.373401
C      0.13007      6.23373      6.23373        -0.019666      0.019844      0.098005
C      0.08601      3.19606      3.19606        -0.009777      1.170926      0.184628
C      0.13007      4.25547      4.25547        -0.053567     -0.218241     -0.241353
C     10.40319      7.29314      3.19606        -0.003588     -0.972930      0.435370
C     10.35913      6.23373      4.25547         0.023043      0.466799     -0.637148
C      7.29314     10.40319      3.19606        -0.420268      0.044853      0.793090
C      6.23373     10.35913      4.25547         0.241457      0.090234     -0.114715
C      7.29314      0.08601      7.29314        -0.555807     -0.028191     -0.256621
C      6.23373      0.13007      6.23373         0.398004     -0.067349      0.404810
C      3.19606      0.08601      3.19606         0.803825     -0.018965      0.348858
C      4.25547      0.13007      4.25547        -0.105799     -0.063806     -0.450582
C      3.19606     10.40319      7.29314         0.509513     -0.000127     -0.749165
C      4.25547     10.35913      6.23373        -0.255817      0.113024      0.249281
C      3.19606      7.29314     10.40319         0.498061     -1.390422     -0.043907
C      4.25547      6.23373     10.35913        -0.393075      0.800452      0.034434
C      7.29314      7.29314      0.08601        -0.449478     -0.231932     -0.012732
C      6.23373      6.23373      0.13007         0.169917      0.139457     -0.012323
C      3.19606      3.19606      0.08601         0.249659      0.252046     -0.021253
C      4.25547      4.25547      0.13007        -0.095090     -0.048791      0.017474
C      7.29314      3.19606     10.40319        -0.356062      0.688761      0.012892
C      6.23373      4.25547     10.35913         1.097737      0.061624      0.003714
O     10.43466      3.58206      8.50569        -0.029276      0.051957      0.450007
O     10.54374     17.39634      8.50569        -0.008777     -0.088756      0.444708
O     10.54374      3.58206     12.47271         0.050189     -0.077432     -0.152925
O     10.43466     17.39634     12.47271        -0.047914     -0.060597     -0.511546
O      8.50569     10.43466      3.58206         0.355207     -0.024724     -0.032704
O      8.50569     10.54374     17.39634         0.655432      0.029073     -0.163807
O     12.47271     10.54374      3.58206        -0.696966     -0.031157      0.152754
O     12.47271     10.43466     17.39634        -0.473205     -0.027766     -0.049580
O      3.58206      8.50569     10.43466         0.137032      1.110951     -0.000520
O     17.39634      8.50569     10.54374        -0.074912      0.404894      0.067460
O      3.58206     12.47271     10.54374         0.070942     -0.414810      0.039539
O     17.39634     12.47271     10.43466        -0.156619     -0.705669      0.006464
O      3.58206     10.43466      8.50569         0.017622     -0.073997      0.629487
O     17.39634     10.54374      8.50569        -0.074890      0.043120      0.338959
O      3.58206     10.54374     12.47271         0.007897      0.023780     -0.318919
O     17.39634     10.43466     12.47271        -0.224126      0.016511     -0.723890
O     10.43466      8.50569      3.58206         0.099672      0.827315      0.197434
O     10.54374      8.50569     17.39634         0.040700      0.671535     -0.156421
O     10.54374     12.47271      3.58206        -0.036482     -1.007553      0.228535
O     10.43466     12.47271     17.39634        -0.025450     -0.904418     -0.196594
O      8.50569      3.58206     10.43466         0.516478      0.098012     -0.020247
O      8.50569     17.39634     10.54374         0.559546     -0.218065     -0.023596
O     12.47271      3.58206     10.54374        -0.470833      0.155730      0.056364
O     12.47271     17.39634     10.43466        -0.376740      0.056011     -0.009817
O     11.90042     11.90042     19.56718        -0.276338     -0.327866      0.259717
O     19.56718     19.56718     19.56718         0.282748      0.280699      0.287535
O     19.56718     11.90042     11.90042         0.286960     -0.306749     -0.200105
O     11.90042     19.56718     11.90042        -0.269193      0.279672     -0.255975
O      9.45224      1.03696      9.45224        -0.088338      0.051512     -0.053723
O      1.03696      9.45224      9.45224         0.035964     -0.176796     -0.110764
O      1.03696      1.03696      1.03696        -0.000264      0.105253      0.213894
O      9.45224      9.45224      1.03696        -0.059261     -0.082929      0.132374
Zr     10.48920      2.52580     10.48920        -0.016426     -0.107907     -0.169523
Zr     10.48920     18.45260     10.48920         0.031508      0.247826     -0.004382
Zr     10.48920     10.48920      2.52580        -0.032965     -0.185460     -0.550882
Zr     10.48920     10.48920     18.45260        -0.054821      0.048330      0.475063
Zr      2.52580     10.48920     10.48920        -0.360676      0.335182      0.107619
Zr     18.45260     10.48920     10.48920         0.210358      0.039834     -0.252773
Pd      8.60683      9.91043     13.24619        -0.015801      0.011824     -0.007459
Pd     10.53360      9.48657     10.32929        -0.012152      0.085145     -0.029029
Pd     13.43939      8.72927     12.50633        -0.053245      0.012056      0.018520
Pd     10.49572     10.63252     15.10430         0.002258     -0.010901      0.023471
Pd     12.99441     11.34049     13.49502         0.014381      0.036929     -0.073546
Pd     14.94691     10.75579     11.28996         0.053419     -0.016696      0.020427
Pd      6.78509      7.92150     12.58402         0.027279     -0.029947     -0.033802
Pd      9.25104      7.21208      9.59986        -0.034596     -0.007268     -0.005222
Pd      9.45386      7.51717     12.35195         0.030706     -0.001921     -0.043477
Pd     11.74895      7.20419     11.04973        -0.036868      0.016868     -0.028300
Pd     11.63169      7.86449      8.42556        -0.019969     -0.040962     -0.076351
Pd      7.18787     11.71091     11.62562         0.005573      0.030154      0.025636
Pd      9.26054     14.41499      9.40902        -0.030618     -0.044008     -0.019172
Pd      8.23987     12.40855     14.20616        -0.082205     -0.012058      0.010686
Pd     14.17345     14.21159      8.32201        -0.053341     -0.015512      0.036678
Pd     11.66656     13.39140      8.86226        -0.010568     -0.038494      0.012819
Pd     14.06614     11.64332      8.93273         0.008070     -0.035243      0.006146
Pd      8.78652     13.90432     12.10440        -0.039906      0.018457      0.054834
Pd     12.21368     13.89098     14.00783        -0.026847     -0.011485     -0.005924
Pd     11.43570     14.10635     11.40997        -0.036160     -0.040059     -0.024390
Pd     14.08228     13.41692     12.15397        -0.027973      0.018357     -0.021522
Pd     12.34941     11.62678     10.92014        -0.047265      0.005426     -0.000351
Pd     12.80188     12.61902      6.62786         0.068233      0.018139     -0.042864
Pd     13.90663      8.92246      7.63028         0.007549     -0.032524     -0.025231
Pd      6.96188      8.41703      8.52208         0.034035      0.044758      0.006014
Pd      5.55636      9.99890     10.23788         0.030081      0.030986     -0.008557
Pd      9.35547      9.46453      7.61765        -0.017600     -0.032154     -0.011428
Pd      8.50342      6.96081      6.98875        -0.007732      0.040471      0.013591
Pd      9.70169     11.93386     10.56255         0.018504     -0.009543      0.025907
Pd     11.67936     10.69247      8.16989         0.002033     -0.010735     -0.016052
Pd     11.67170      9.04484      6.00540         0.011148     -0.052908     -0.056681
Pd     10.33561     11.35936      5.83261         0.076619     -0.002090      0.024903
Ir     11.08699      9.58730     12.78596        -0.053838     -0.004507     -0.029927
Ir     13.16941      9.32903     10.02427         0.041685     -0.018213      0.018585
Ir     10.54509     12.05546     12.92904        -0.020215      0.091538     -0.008286
Ir      7.70577     10.96975      9.14190        -0.035515      0.025291     -0.012213
Ir      9.42088     12.18049      8.04411         0.056209      0.027834     -0.065992
Ir      8.06002      9.22636     10.82897         0.037794     -0.024107      0.012270
