152
# total energy = -1110.34123294 eVH     10.35389      5.87395      7.64558        -0.345649     -0.187446      1.033561
H     10.62451     15.10445      7.64558         0.393617      0.092532      0.947340
H     10.62451      5.87395     13.33282        -0.292199     -0.763499     -1.447974
H     10.35389     15.10445     13.33282        -0.646527      0.359987     -0.329659
H      7.64558     10.35389      5.87395         0.540704     -0.548911     -0.074954
H      7.64558     10.62451     15.10445         0.346334     -0.245323      0.037187
H     13.33282     10.62451      5.87395        -0.501959      0.580282     -0.005872
H     13.33282     10.35389     15.10445        -0.531324      0.411776      0.158024
H      5.87395      7.64558     10.35389         0.132696      0.472462      0.033678
H     15.10445      7.64558     10.62451         0.424454      0.759028      0.245166
H      5.87395     13.33282     10.62451        -0.236915     -0.427378      0.368915
H     15.10445     13.33282     10.35389         0.031401     -0.318962     -0.394517
H      5.87395     10.35389      7.64558        -0.071257     -0.339654      1.463705
H     15.10445     10.62451      7.64558         0.187815      0.356018      1.206499
H      5.87395     10.62451     13.33282        -0.127211     -0.328882     -1.102675
H     15.10445     10.35389     13.33282         0.498514      0.837522     -1.494313
H     10.35389      7.64558      5.87395        -0.525579      0.500697     -0.214639
H     10.62451      7.64558     15.10445        -0.126444      0.580851      0.212614
H     10.62451     13.33282      5.87395         0.914872     -1.413826     -0.334989
H     10.35389     13.33282     15.10445         0.300309     -0.540842     -0.062803
H      7.64558      5.87395     10.35389         0.745310      0.169015     -0.137858
H      7.64558     15.10445     10.62451         1.974356      0.840719      0.180581
H     13.33282      5.87395     10.62451        -2.675144     -1.012922     -0.375524
H     13.33282     15.10445     10.35389        -0.860267     -0.037985     -0.253568
H     12.45634     12.45634     19.01126         0.271734      0.257644     -0.227917
H     19.01126     19.01126     19.01126        -0.266930     -0.254176     -0.237906
H     19.01126     12.45634     12.45634        -0.282652      0.281614      0.186930
H     12.45634     19.01126     12.45634         0.256375     -0.252017      0.235718
C     10.35284      5.61067      6.59456         0.113732     -0.492624     -1.295525
C     10.62556     15.36773      6.59456         0.159520      0.762636     -0.869759
C     10.62556      5.61067     14.38384         0.157208     -0.317547      1.854714
C     10.35284     15.36773     14.38384         0.130883      0.395602      1.811636
C      6.59456     10.35284      5.61067        -1.116320     -0.115714     -0.849647
C      6.59456     10.62556     15.36773        -0.665249     -0.112415      0.713692
C     14.38384     10.62556      5.61067         0.872438     -0.120138     -0.971398
C     14.38384     10.35284     15.36773         1.196398      0.162474      1.087351
C      5.61067      6.59456     10.35284        -0.712059     -0.771478     -0.156009
C     15.36773      6.59456     10.62556         1.934785     -0.143289     -0.168837
C      5.61067     14.38384     10.62556        -1.575520      0.006356     -0.097537
C     15.36773     14.38384     10.35284         0.479167      0.046338      0.037528
C      5.61067     10.35284      6.59456        -0.275763      0.218697     -1.399442
C     15.36773     10.62556      6.59456         0.267913     -0.166477     -0.979654
C      5.61067     10.62556     14.38384        -0.294773      0.357125      1.409382
C     15.36773     10.35284     14.38384         0.078343     -0.425552      1.875526
C     10.35284      6.59456      5.61067        -0.216739     -0.972450     -0.723914
C     10.62556      6.59456     15.36773        -0.086828     -0.848817      1.051403
C     10.62556     14.38384      5.61067        -0.476062      2.064035     -0.781509
C     10.35284     14.38384     15.36773        -0.302104      1.503474      0.452425
C      6.59456      5.61067     10.35284        -0.969201     -0.408956      0.075126
C      6.59456     15.36773     10.62556        -1.373908      0.323661     -0.339455
C     14.38384      5.61067     10.62556         1.305959     -1.024376      0.128471
C     14.38384     15.36773     10.35284         0.382647      0.309076      0.052832
C     10.40319      3.19606      7.29314         0.005685      0.311132     -0.096532
C     10.35913      4.25547      6.23373         0.136625     -0.490649      0.046203
C      0.08601      7.29314      7.29314        -0.054617     -0.313377     -0.432734
C      0.13007      6.23373      6.23373        -0.131996      0.741904      0.047688
C      0.08601      3.19606      3.19606        -0.112293      1.613858      0.173176
C      0.13007      4.25547      4.25547        -0.093763     -0.408502     -1.271324
C     10.40319      7.29314      3.19606         0.019038     -0.424900      0.129417
C     10.35913      6.23373      4.25547         0.259707      0.081443     -0.470707
C      7.29314     10.40319      3.19606        -1.674065      0.006256      0.321934
C      6.23373     10.35913      4.25547         0.645671      0.077228     -0.611541
C      7.29314      0.08601      7.29314        -0.394974     -0.006295     -0.288354
C      6.23373      0.13007      6.23373         0.585350     -0.050178      0.284285
C      3.19606      0.08601      3.19606         0.662665     -0.012502      0.199228
C      4.25547      0.13007      4.25547        -0.376181     -0.051329     -0.468205
C      3.19606     10.40319      7.29314         0.387950      0.021158     -0.328860
C      4.25547     10.35913      6.23373        -0.728147      0.057621      0.386109
C      3.19606      7.29314     10.40319         0.314014     -0.229024     -0.005996
C      4.25547      6.23373     10.35913         0.056039      0.647865      0.095867
C      7.29314      7.29314      0.08601        -0.717910     -0.577296     -0.014586
C      6.23373      6.23373      0.13007         0.730329      1.171517     -0.080012
C      3.19606      3.19606      0.08601         0.803096      0.476812      0.014013
C      4.25547      4.25547      0.13007        -0.338711     -1.676781     -0.107752
C      7.29314      3.19606     10.40319        -0.336037      0.279425     -0.002874
C      6.23373      4.25547     10.35913         0.533115     -0.049448      0.230472
O     10.43466      3.58206      8.50569        -0.046851      0.181096      0.258390
O     10.54374     17.39634      8.50569         0.041001     -0.230071      0.483850
O     10.54374      3.58206     12.47271         0.087654     -0.051896     -0.047343
O     10.43466     17.39634     12.47271        -0.024369     -0.136133     -0.277761
O      8.50569     10.43466      3.58206         0.982777      0.182337      0.392914
O      8.50569     10.54374     17.39634         0.562362      0.082922     -0.225297
O     12.47271     10.54374      3.58206        -0.439373     -0.036522      0.190716
O     12.47271     10.43466     17.39634        -0.531826     -0.071263     -0.201716
O      3.58206      8.50569     10.43466         0.176085      0.448803     -0.032366
O     17.39634      8.50569     10.54374        -0.223596      0.710965      0.040991
O      3.58206     12.47271     10.54374         0.157120     -0.656383      0.023568
O     17.39634     12.47271     10.43466        -0.184751     -0.486884     -0.014437
O      3.58206     10.43466      8.50569         0.219087     -0.060133      0.403171
O     17.39634     10.54374      8.50569        -0.167555      0.035916      0.409514
O      3.58206     10.54374     12.47271         0.141089      0.019302     -0.314992
O     17.39634     10.43466     12.47271         0.067716     -0.053271     -0.088486
O     10.43466      8.50569      3.58206        -0.001990      0.282143      0.177621
O     10.54374      8.50569     17.39634         0.071311      0.442027     -0.186090
O     10.54374     12.47271      3.58206        -0.223630     -0.959153      0.347654
O     10.43466     12.47271     17.39634        -0.085503     -0.446688     -0.244373
O      8.50569      3.58206     10.43466         0.501693      0.195262     -0.014203
O      8.50569     17.39634     10.54374         0.651841     -0.191021      0.024555
O     12.47271      3.58206     10.54374        -0.731855      0.277603      0.037505
O     12.47271     17.39634     10.43466        -0.449066     -0.196293     -0.044052
O     11.90042     11.90042     19.56718        -0.344083     -0.306837      0.258603
O     19.56718     19.56718     19.56718         0.326859      0.309853      0.280930
O     19.56718     11.90042     11.90042         0.279404     -0.280043     -0.140653
O     11.90042     19.56718     11.90042        -0.308996      0.289539     -0.234010
O      9.45224      1.03696      9.45224        -0.055171      0.070655     -0.048983
O      1.03696      9.45224      9.45224         0.034844     -0.071904     -0.073807
O      1.03696      1.03696      1.03696         0.054848      0.135750      0.108053
O      9.45224      9.45224      1.03696        -0.127304     -0.086368      0.108626
Zr     10.48920      2.52580     10.48920         0.134461     -0.161476     -0.160378
Zr     10.48920     18.45260     10.48920        -0.086197      0.177323     -0.038462
Zr     10.48920     10.48920      2.52580         0.330621     -0.308151     -0.200430
Zr     10.48920     10.48920     18.45260        -0.000515     -0.081188      0.211540
Zr      2.52580     10.48920     10.48920        -0.061259      0.155525     -0.049417
Zr     18.45260     10.48920     10.48920         0.129597     -0.118762     -0.248755
Ir     12.05821     12.48814     10.46240         0.014699     -0.014297     -0.017462
Ir     11.10179      7.41278     10.34949         0.044265      0.002367     -0.033811
Ir      8.74963      7.41851     11.60749         0.047150     -0.014193     -0.019721
Ir      7.47403     11.68317      7.64672         0.017771     -0.005908      0.009012
Ir     11.58873     12.09672      7.12712        -0.004163     -0.012346     -0.012710
Ir     13.69666      8.95356      7.57290         0.022057      0.020857     -0.003588
Ir     12.51385     13.94560      8.42121        -0.002225      0.012470      0.008869
Ir      9.70132     11.27329      5.57492         0.005872      0.002290      0.012466
Ir      9.08661     13.47946      7.07342        -0.007750      0.003362      0.009169
Ir      9.28112      9.66613      7.54838        -0.004419     -0.008686     -0.003534
Ir     13.21424      7.04863     11.94441         0.033150     -0.025310      0.009523
Ir     13.48213      7.00696      9.12323         0.045115      0.022918     -0.009521
Ir     10.97253      7.61187     12.88270         0.023158     -0.005378     -0.001972
Ir     13.61163     11.54226      8.75656        -0.003100      0.006966      0.003743
Ir     11.49007      9.66991      6.24241        -0.001088      0.005834     -0.004030
Ir      7.11306      9.23948      8.95964         0.022588     -0.031707     -0.003018
Ir     14.04996     11.39863     11.65907         0.018185      0.010580     -0.006387
Ir     11.62862      9.88452      8.91816         0.028604     -0.024622     -0.019473
Ir      9.39817      9.55181     10.26627        -0.003598     -0.039161     -0.014580
Ir     13.82862      9.36854     10.19168         0.004685      0.016832     -0.007002
Ir     13.78513      9.14629     12.92799         0.001035      0.006391     -0.012592
Ir     11.65947      9.75784     11.58651         0.011076      0.007286     -0.016836
Ir      9.90442     11.77819      8.98540        -0.014349      0.014726     -0.005014
Ir      8.96665      7.45413      8.87782         0.055387     -0.002934     -0.013409
Ir     11.42275      7.61439      7.82338         0.071936     -0.010411     -0.008447
Ir      9.21790      9.53029     13.02888         0.012975     -0.018531     -0.007001
Ir      7.53902     13.95270      8.98571        -0.001616     -0.019719      0.001016
Ir     10.92964     14.14028     11.94329        -0.020934     -0.011524      0.016301
Ir     10.13506     14.19468      9.52188        -0.008091     -0.019121     -0.001480
Ir      9.80138     11.72521     11.72772        -0.014796      0.003020      0.004016
Ir      7.58274     11.63727     10.20890         0.002024     -0.023306      0.004922
Ir      8.39390     13.79893     11.58751        -0.006798     -0.027382      0.005147
Ir      7.52605     11.65289     12.83542         0.005919     -0.030196     -0.001017
Ir      9.75967     11.65969     14.34462         0.008694     -0.012540     -0.007473
Ir     13.51818     13.86039     12.19286        -0.006879      0.010422     -0.005800
Ir     11.99668     12.06098     13.08771        -0.004205     -0.008245      0.004192
Ir     11.55293      9.83013     14.21875         0.002906     -0.003979      0.002953
Ir      7.10727      9.46026     11.51746         0.024787     -0.037310     -0.008705
