152
# total energy = -1004.85339956 eVH     10.35389      5.87395      7.64558         0.048722      0.069797      0.647475
H     10.62451     15.10445      7.64558        -0.122596     -0.155420      0.518109
H     10.62451      5.87395     13.33282         0.439145      0.036173     -0.836265
H     10.35389     15.10445     13.33282         0.037985     -0.159756     -0.458654
H      7.64558     10.35389      5.87395         0.344046      0.027409      0.158101
H      7.64558     10.62451     15.10445         0.946144      0.573850      0.017363
H     13.33282     10.62451      5.87395        -0.552921      0.349603      0.026653
H     13.33282     10.35389     15.10445        -0.957755     -0.251989      0.138244
H      5.87395      7.64558     10.35389         0.294665      1.406468      0.170443
H     15.10445      7.64558     10.62451        -0.105841      0.541936      0.257035
H      5.87395     13.33282     10.62451         0.186612     -0.568824      0.012176
H     15.10445     13.33282     10.35389         0.017035     -1.080071     -0.350218
H      5.87395     10.35389      7.64558         0.186061      0.039093      0.455246
H     15.10445     10.62451      7.64558        -0.137059      0.597398      0.828132
H      5.87395     10.62451     13.33282        -0.032112      0.596631     -1.301144
H     15.10445     10.35389     13.33282         0.002919     -0.149418     -0.717991
H     10.35389      7.64558      5.87395         0.095407      1.381493      0.034447
H     10.62451      7.64558     15.10445         0.551381      0.720249     -0.127614
H     10.62451     13.33282      5.87395        -0.366374     -0.762331      0.293347
H     10.35389     13.33282     15.10445        -0.164226     -0.469287     -0.315965
H      7.64558      5.87395     10.35389         0.919514      0.003114     -0.193537
H      7.64558     15.10445     10.62451         0.807431     -0.184743     -0.009275
H     13.33282      5.87395     10.62451        -0.597289      0.165399      0.522744
H     13.33282     15.10445     10.35389        -0.448616     -0.082586     -0.167804
H     12.45634     12.45634     19.01126         0.257518      0.269792     -0.229153
H     19.01126     19.01126     19.01126        -0.276672     -0.261157     -0.223562
H     19.01126     12.45634     12.45634        -0.276898      0.259508      0.221773
H     12.45634     19.01126     12.45634         0.237824     -0.269590      0.262843
C     10.35284      5.61067      6.59456        -0.295448     -0.798554     -0.053302
C     10.62556     15.36773      6.59456         0.030056      0.227979     -0.328179
C     10.62556      5.61067     14.38384        -0.066774     -0.440568      0.520747
C     10.35284     15.36773     14.38384         0.005143      0.298961      0.438579
C      6.59456     10.35284      5.61067        -0.367029      0.022708     -0.199471
C      6.59456     10.62556     15.36773        -0.999925      0.182379      0.742390
C     14.38384     10.62556      5.61067         0.246318     -0.336517     -0.747595
C     14.38384     10.35284     15.36773         1.120644     -0.074655      0.239744
C      5.61067      6.59456     10.35284        -0.755058     -0.367049     -0.305250
C     15.36773      6.59456     10.62556         0.628882     -0.110466     -0.296525
C      5.61067     14.38384     10.62556        -0.192751      0.614626      0.000216
C     15.36773     14.38384     10.35284         0.295956      1.030923      0.074261
C      5.61067     10.35284      6.59456        -0.272710      0.011634     -0.764357
C     15.36773     10.62556      6.59456         0.546210     -0.153471      0.094153
C      5.61067     10.62556     14.38384        -0.709086     -0.005601      0.903287
C     15.36773     10.35284     14.38384         0.524376     -0.102966      1.042517
C     10.35284      6.59456      5.61067        -0.050148     -0.848724     -0.522855
C     10.62556      6.59456     15.36773         0.099511     -0.620666      0.482946
C     10.62556     14.38384      5.61067         0.110968      1.169187     -0.295220
C     10.35284     14.38384     15.36773        -0.021995      0.986661      0.522546
C      6.59456      5.61067     10.35284         0.061485     -1.144060      0.286456
C      6.59456     15.36773     10.62556        -0.976279      0.171663      0.104635
C     14.38384      5.61067     10.62556         0.004791     -0.457443     -0.389297
C     14.38384     15.36773     10.35284         0.172951      0.481231     -0.068587
C     10.40319      3.19606      7.29314         0.015896      1.035244     -0.450904
C     10.35913      4.25547      6.23373         0.078588     -0.641930      0.086957
C      0.08601      7.29314      7.29314        -0.030660     -0.920391     -0.175177
C      0.13007      6.23373      6.23373        -0.071672      0.253370      0.344151
C      0.08601      3.19606      3.19606         0.035076      1.323837      0.191157
C      0.13007      4.25547      4.25547        -0.027137     -0.426472     -0.324153
C     10.40319      7.29314      3.19606         0.007575     -0.419483      0.289529
C     10.35913      6.23373      4.25547         0.022987      0.046577     -0.874617
C      7.29314     10.40319      3.19606        -0.257270      0.019245      0.577846
C      6.23373     10.35913      4.25547         0.167057      0.077111     -0.102752
C      7.29314      0.08601      7.29314        -1.137394     -0.088455     -0.282585
C      6.23373      0.13007      6.23373         0.828051     -0.214734      0.384229
C      3.19606      0.08601      3.19606         1.035952     -0.028196      0.550621
C      4.25547      0.13007      4.25547        -0.631017     -0.173737     -0.593296
C      3.19606     10.40319      7.29314         0.604235      0.008120     -0.599615
C      4.25547     10.35913      6.23373        -0.288299      0.107883      0.240780
C      3.19606      7.29314     10.40319         0.338461     -1.129143      0.031251
C      4.25547      6.23373     10.35913        -1.115213      0.048405      0.143307
C      7.29314      7.29314      0.08601        -0.449480     -0.457447     -0.014890
C      6.23373      6.23373      0.13007         0.483916      0.304725      0.029110
C      3.19606      3.19606      0.08601         0.451168      0.371679     -0.034084
C      4.25547      4.25547      0.13007        -0.074383     -0.612928     -0.074999
C      7.29314      3.19606     10.40319        -0.395961      0.500700      0.064023
C      6.23373      4.25547     10.35913         0.341845     -0.775031      0.192237
O     10.43466      3.58206      8.50569        -0.031992      0.010119      0.413592
O     10.54374     17.39634      8.50569         0.066480     -0.047756      0.265867
O     10.54374      3.58206     12.47271         0.014220     -0.095658     -0.114232
O     10.43466     17.39634     12.47271        -0.034378     -0.155037     -0.531398
O      8.50569     10.43466      3.58206         0.295873     -0.020255      0.018416
O      8.50569     10.54374     17.39634         0.909343     -0.074503     -0.173510
O     12.47271     10.54374      3.58206        -0.837596      0.098319      0.075642
O     12.47271     10.43466     17.39634        -0.548034      0.025748     -0.096096
O      3.58206      8.50569     10.43466         0.174065      1.016460     -0.028232
O     17.39634      8.50569     10.54374        -0.148440      0.631330      0.053997
O      3.58206     12.47271     10.54374         0.101931     -0.496638      0.041392
O     17.39634     12.47271     10.43466        -0.153199     -0.601791     -0.030789
O      3.58206     10.43466      8.50569         0.073402     -0.079622      0.557195
O     17.39634     10.54374      8.50569         0.038307      0.105620      0.344454
O      3.58206     10.54374     12.47271         0.008236      0.037380     -0.469305
O     17.39634     10.43466     12.47271        -0.232490     -0.034095     -0.699703
O     10.43466      8.50569      3.58206        -0.044425      0.517555      0.147746
O     10.54374      8.50569     17.39634        -0.076071      0.735041     -0.208277
O     10.54374     12.47271      3.58206         0.052754     -0.972894      0.171963
O     10.43466     12.47271     17.39634         0.080580     -0.896740     -0.231799
O      8.50569      3.58206     10.43466         0.574216      0.141743     -0.058921
O      8.50569     17.39634     10.54374         0.542633     -0.162151     -0.002781
O     12.47271      3.58206     10.54374        -0.631024      0.164293      0.020790
O     12.47271     17.39634     10.43466        -0.340587      0.018023     -0.045935
O     11.90042     11.90042     19.56718        -0.293909     -0.309862      0.222610
O     19.56718     19.56718     19.56718         0.316074      0.305750      0.213278
O     19.56718     11.90042     11.90042         0.318696     -0.265648     -0.237606
O     11.90042     19.56718     11.90042        -0.251790      0.320738     -0.311378
O      9.45224      1.03696      9.45224        -0.011873      0.064542     -0.153852
O      1.03696      9.45224      9.45224         0.066787     -0.055573     -0.176856
O      1.03696      1.03696      1.03696         0.092447      0.142423      0.043930
O      9.45224      9.45224      1.03696        -0.085955     -0.084585      0.023390
Zr     10.48920      2.52580     10.48920        -0.048638     -0.191023      0.000458
Zr     10.48920     18.45260     10.48920        -0.059530      0.129952      0.222109
Zr     10.48920     10.48920      2.52580        -0.150460     -0.441507     -0.223580
Zr     10.48920     10.48920     18.45260         0.015330      0.028467      0.506039
Zr      2.52580     10.48920     10.48920        -0.276792      0.216087      0.202268
Zr     18.45260     10.48920     10.48920         0.174402     -0.012637     -0.041244
Pd     13.43889      8.73356      9.39034        -0.004129     -0.010471      0.001644
Pd      5.85751      9.74308     10.04821         0.008269     -0.009563     -0.032990
Pd      6.90443     11.48602     11.73931         0.069400     -0.088285      0.063465
Pd     12.17056     13.12905      7.43538         0.077085     -0.052174     -0.044104
Pd     12.16010      7.65714      6.92991        -0.034910      0.066360      0.112239
Pd      8.36295      7.10521      6.72857         0.026722      0.036802     -0.020452
Pd     11.07325     11.34050      5.60941        -0.045878      0.006565      0.007500
Pd     14.59756      8.58641      6.95833         0.057495      0.016176      0.010846
Pd      9.89914     11.68285      8.14486        -0.152462      0.025511     -0.014835
Pd      6.83392      6.85587     12.23797        -0.074397     -0.009948     -0.045474
Pd      6.37936      7.52698      8.37750         0.048450     -0.081670     -0.021510
Pd      7.09073      9.06111     13.64999         0.071129     -0.058698     -0.000915
Pd     11.61056      6.55369      9.27678         0.044004     -0.022833      0.002983
Pd      9.93383      9.32275      6.84631        -0.011432     -0.029999     -0.094339
Pd      9.06524     13.91163      9.45988         0.029959     -0.010380     -0.069289
Pd     10.54373      7.34713     11.47982        -0.077827      0.002814      0.074590
Pd     10.59772      9.08334      9.45127         0.117679      0.019209     -0.001804
Pd      9.42023     11.31255     10.74794        -0.043482      0.050189     -0.037486
Pd      8.96304      7.01862      9.30263        -0.030675     -0.004066     -0.067624
Pd      9.02762      7.30337     13.58757        -0.018981     -0.012927     -0.006250
Pd      8.25410      8.92037     11.24632        -0.014107      0.014425      0.182292
Pd     12.25684     10.35483      7.72889        -0.094106     -0.002216     -0.081450
Pd      7.27151     11.99234      9.16672         0.042412     -0.006868      0.000208
Pd      8.07400      9.54741      8.63524         0.033868      0.097522     -0.048766
Pd     14.13526      6.35636      8.41798         0.035659      0.082934      0.064796
Pd     12.87151      8.51826     11.97406        -0.109244     -0.098102     -0.084424
Pd      8.82328     11.47183     13.51395         0.012183     -0.046622     -0.027206
Pd     13.83634     11.94246      9.09620         0.077869      0.051281      0.000218
Pd     13.02537     10.99122     13.25046        -0.008699     -0.102515     -0.093906
Pd     14.75064     10.41183     11.12155        -0.054839     -0.021914      0.033265
Pd     12.08000     10.75145     10.74392        -0.101468     -0.025295      0.006101
Pd     11.48260     13.18363      9.97409        -0.005364      0.034387     -0.096651
Pd     13.61050     13.01138     11.64925        -0.021582      0.041049      0.019185
Pd     11.08064     12.68586     12.53830        -0.122577      0.014437     -0.053490
Pd     11.07017     11.44912     14.97163         0.055954      0.019009      0.025046
Pd     10.61268      9.70259     12.79966         0.051778     -0.136536     -0.090586
Pd      9.36999      9.42255     15.20437         0.097582     -0.013165      0.007078
Pd      8.64639     13.64096     12.05407         0.003614     -0.034939     -0.000458
