152
# total energy = -1005.62867584 eVH     10.35389      5.87395      7.64558         0.159176      0.100985      0.565980
H     10.62451     15.10445      7.64558        -0.115655     -0.148412      0.497351
H     10.62451      5.87395     13.33282         0.585859      0.090410     -0.794294
H     10.35389     15.10445     13.33282         0.030142     -0.160616     -0.415347
H      7.64558     10.35389      5.87395         0.354299      0.036462      0.165723
H      7.64558     10.62451     15.10445         0.859953      0.511540     -0.013311
H     13.33282     10.62451      5.87395        -0.442573      0.347036      0.113867
H     13.33282     10.35389     15.10445        -0.849902     -0.072298      0.011818
H      5.87395      7.64558     10.35389         0.309884      1.184635      0.037803
H     15.10445      7.64558     10.62451        -0.106292      0.484449      0.290715
H      5.87395     13.33282     10.62451         0.188457     -0.631113      0.014408
H     15.10445     13.33282     10.35389        -0.074453     -0.954828     -0.207233
H      5.87395     10.35389      7.64558         0.209284      0.046400      0.444688
H     15.10445     10.62451      7.64558        -0.139585      0.504455      0.778000
H      5.87395     10.62451     13.33282         0.092070      0.387307     -0.945050
H     15.10445     10.35389     13.33282        -0.073603     -0.034805     -0.654018
H     10.35389      7.64558      5.87395         0.333776      1.150028      0.057591
H     10.62451      7.64558     15.10445         0.706541      0.668121     -0.203255
H     10.62451     13.33282      5.87395        -0.398539     -0.804909      0.264523
H     10.35389     13.33282     15.10445        -0.094493     -0.468514     -0.284784
H      7.64558      5.87395     10.35389         0.875045      0.054067     -0.224938
H      7.64558     15.10445     10.62451         0.810077     -0.181371      0.022284
H     13.33282      5.87395     10.62451        -0.731331      0.173990      0.524112
H     13.33282     15.10445     10.35389        -0.379153     -0.117946     -0.096587
H     12.45634     12.45634     19.01126         0.245544      0.270745     -0.234080
H     19.01126     19.01126     19.01126        -0.271886     -0.248405     -0.243608
H     19.01126     12.45634     12.45634        -0.275879      0.263385      0.221020
H     12.45634     19.01126     12.45634         0.236153     -0.263291      0.272468
C     10.35284      5.61067      6.59456        -0.323060     -0.724607     -0.079005
C     10.62556     15.36773      6.59456         0.070852      0.354058     -0.257361
C     10.62556      5.61067     14.38384        -0.151069     -0.509362      0.136124
C     10.35284     15.36773     14.38384         0.015017      0.200577      0.372318
C      6.59456     10.35284      5.61067        -0.386805      0.011453     -0.253645
C      6.59456     10.62556     15.36773        -0.572187      0.046323      0.632632
C     14.38384     10.62556      5.61067        -0.247608     -0.466936     -0.662453
C     14.38384     10.35284     15.36773         1.038692     -0.087532      0.178968
C      5.61067      6.59456     10.35284        -0.711767     -0.217735     -0.356524
C     15.36773      6.59456     10.62556         0.543784      0.009018     -0.327170
C      5.61067     14.38384     10.62556        -0.253697      0.734365     -0.007359
C     15.36773     14.38384     10.35284         0.291461      0.960849      0.032775
C      5.61067     10.35284      6.59456        -0.289705     -0.004191     -0.752487
C     15.36773     10.62556      6.59456         0.487271     -0.270131      0.189155
C      5.61067     10.62556     14.38384        -0.644053     -0.072313      0.333178
C     15.36773     10.35284     14.38384         0.427915     -0.037766      1.013737
C     10.35284      6.59456      5.61067        -0.157903     -0.740739     -0.566088
C     10.62556      6.59456     15.36773        -0.096147     -0.353119      0.593144
C     10.62556     14.38384      5.61067         0.202998      1.124391     -0.367006
C     10.35284     14.38384     15.36773        -0.003077      0.815718      0.387462
C      6.59456      5.61067     10.35284         0.053374     -1.061000      0.220587
C      6.59456     15.36773     10.62556        -0.980192      0.229266      0.083040
C     14.38384      5.61067     10.62556         0.324083     -0.548497     -0.368560
C     14.38384     15.36773     10.35284         0.145928      0.393398     -0.076977
C     10.40319      3.19606      7.29314         0.006619      0.837338     -0.460521
C     10.35913      4.25547      6.23373         0.068320     -0.555342      0.096528
C      0.08601      7.29314      7.29314        -0.044123     -0.736256     -0.250321
C      0.13007      6.23373      6.23373        -0.040139      0.170859      0.494544
C      0.08601      3.19606      3.19606         0.016363      1.408304      0.269768
C      0.13007      4.25547      4.25547         0.025953     -0.667590     -0.228522
C     10.40319      7.29314      3.19606         0.004849     -0.331522      0.271162
C     10.35913      6.23373      4.25547         0.029038      0.028570     -0.730741
C      7.29314     10.40319      3.19606        -0.253630      0.017754      0.546872
C      6.23373     10.35913      4.25547         0.145678      0.045578     -0.062305
C      7.29314      0.08601      7.29314        -0.762367     -0.076036     -0.313742
C      6.23373      0.13007      6.23373         0.784946     -0.154165      0.427865
C      3.19606      0.08601      3.19606         0.945463     -0.022388      0.581883
C      4.25547      0.13007      4.25547        -0.551618     -0.078602     -0.616984
C      3.19606     10.40319      7.29314         0.532518     -0.009594     -0.760676
C      4.25547     10.35913      6.23373        -0.271488      0.067620      0.214187
C      3.19606      7.29314     10.40319         0.286980     -1.287517      0.029398
C      4.25547      6.23373     10.35913        -1.034204      0.021146      0.113567
C      7.29314      7.29314      0.08601        -0.432946     -0.417508     -0.015748
C      6.23373      6.23373      0.13007         0.523129      0.236744      0.010408
C      3.19606      3.19606      0.08601         0.454408      0.365345     -0.035710
C      4.25547      4.25547      0.13007        -0.132892     -0.593465     -0.043923
C      7.29314      3.19606     10.40319        -0.372927      0.432912      0.056201
C      6.23373      4.25547     10.35913         0.262206     -0.733570      0.136828
O     10.43466      3.58206      8.50569        -0.013148      0.059911      0.456537
O     10.54374     17.39634      8.50569         0.060510     -0.098729      0.378502
O     10.54374      3.58206     12.47271         0.028304     -0.120326     -0.150504
O     10.43466     17.39634     12.47271        -0.029134     -0.170354     -0.519653
O      8.50569     10.43466      3.58206         0.270615     -0.022298      0.010176
O      8.50569     10.54374     17.39634         0.748196     -0.031362     -0.173608
O     12.47271     10.54374      3.58206        -0.814379      0.098332      0.086976
O     12.47271     10.43466     17.39634        -0.471535      0.033031     -0.080878
O      3.58206      8.50569     10.43466         0.159963      1.066434     -0.029955
O     17.39634      8.50569     10.54374        -0.158128      0.579710      0.069664
O      3.58206     12.47271     10.54374         0.103739     -0.434512      0.042070
O     17.39634     12.47271     10.43466        -0.146888     -0.542412     -0.030138
O      3.58206     10.43466      8.50569         0.074735     -0.088986      0.612882
O     17.39634     10.54374      8.50569        -0.049614      0.087835      0.443920
O      3.58206     10.54374     12.47271         0.006504      0.033379     -0.490773
O     17.39634     10.43466     12.47271        -0.234064     -0.045052     -0.652370
O     10.43466      8.50569      3.58206        -0.038176      0.449777      0.139699
O     10.54374      8.50569     17.39634        -0.041917      0.668133     -0.204503
O     10.54374     12.47271      3.58206         0.039131     -1.008675      0.113400
O     10.43466     12.47271     17.39634         0.055534     -0.795221     -0.209657
O      8.50569      3.58206     10.43466         0.563727      0.155299     -0.055492
O      8.50569     17.39634     10.54374         0.522854     -0.182740      0.002643
O     12.47271      3.58206     10.54374        -0.605679      0.195476      0.002178
O     12.47271     17.39634     10.43466        -0.245103      0.066034     -0.044388
O     11.90042     11.90042     19.56718        -0.259681     -0.304045      0.232384
O     19.56718     19.56718     19.56718         0.323666      0.295725      0.259114
O     19.56718     11.90042     11.90042         0.314483     -0.261314     -0.237018
O     11.90042     19.56718     11.90042        -0.237086      0.301605     -0.326736
O      9.45224      1.03696      9.45224         0.001554      0.073771     -0.122058
O      1.03696      9.45224      9.45224         0.088430     -0.072741     -0.160660
O      1.03696      1.03696      1.03696         0.112449      0.169888      0.030282
O      9.45224      9.45224      1.03696        -0.095146     -0.111528      0.016499
Zr     10.48920      2.52580     10.48920        -0.098283     -0.230846     -0.014827
Zr     10.48920     18.45260     10.48920        -0.098138      0.187132      0.156867
Zr     10.48920     10.48920      2.52580        -0.109701     -0.435170     -0.215146
Zr     10.48920     10.48920     18.45260        -0.178262     -0.012922      0.409699
Zr      2.52580     10.48920     10.48920        -0.350284      0.272275      0.281808
Zr     18.45260     10.48920     10.48920         0.170694      0.007287     -0.125984
Pd     13.62417      8.94893      9.15307        -0.005654     -0.005668      0.019791
Pd      5.70288      9.75820     10.02115        -0.012807      0.023227      0.015613
Pd      6.81769     11.52908     11.70015        -0.025174      0.081596     -0.014497
Pd     12.18896     13.10563      7.33326        -0.001511     -0.005731     -0.000272
Pd     12.06638      7.87098      7.22669        -0.017905     -0.007950      0.034902
Pd      8.29206      7.05208      6.56709        -0.000909     -0.005124      0.003941
Pd     10.88805     11.28038      5.57980        -0.001615     -0.008729      0.004190
Pd     14.61417      8.53196      6.71127        -0.019837      0.000121      0.014187
Pd      9.64876     11.80117      7.99917         0.004292     -0.003251      0.000358
Pd      6.75182      6.78428     12.28476         0.044523      0.004185     -0.017394
Pd      6.38064      7.59667      8.27172        -0.000287      0.015953      0.000088
Pd      6.91469      8.76402     13.98784        -0.058237     -0.063685      0.069889
Pd     11.59858      6.54034      9.53985        -0.027244     -0.009703      0.042923
Pd      9.73265      9.29375      6.91013        -0.014756     -0.001657      0.021486
Pd      9.02016     13.96707      9.40085        -0.002331      0.003459     -0.011792
Pd      9.90028      7.14814     11.58808        -0.092734      0.047820      0.034298
Pd     10.52038      8.97119      9.56814        -0.001780      0.001027      0.020612
Pd      9.34519     11.30709     10.60275        -0.004050      0.030238     -0.001398
Pd      8.87993      7.00283      9.13599        -0.001410     -0.001272      0.001573
Pd      8.72404      6.81949     13.97615        -0.031211     -0.052460      0.073197
Pd      7.96676      9.03928     11.50539        -0.058675      0.093234      0.078370
Pd     11.96108     10.50933      7.83635         0.002919     -0.009593      0.000457
Pd      7.13649     12.05568      9.11493        -0.001016     -0.001904     -0.026105
Pd      8.03001      9.58714      8.84534         0.006461     -0.011127      0.054070
Pd     14.13930      6.49052      8.45728        -0.023448     -0.005851      0.008165
Pd     12.51610      8.25249     11.48053        -0.022467     -0.001952      0.009674
Pd      8.79172     11.38136     13.41914        -0.022485      0.027530     -0.013874
Pd     13.90221     11.92910      9.03594         0.005494      0.001074     -0.005762
Pd     12.87398     10.57681     13.09039         0.006014      0.005934     -0.003526
Pd     14.73172     10.33103     11.13805         0.008443      0.010304     -0.001309
Pd     12.05786     10.74246     10.58540         0.005618      0.011141     -0.007605
Pd     11.44928     13.15968      9.86212         0.002762      0.013820     -0.000729
Pd     13.56614     12.82235     11.66730         0.003746      0.006386     -0.002446
Pd     11.03962     12.53358     12.44460         0.004118      0.004073     -0.000677
Pd     11.07059     11.33593     14.87434        -0.022016     -0.022119     -0.010445
Pd     10.46696      9.56633     12.52690        -0.004136      0.039152     -0.023174
Pd      9.41317      9.27491     14.91129        -0.027002     -0.014755     -0.061986
Pd      8.65764     13.57848     11.99615         0.018407      0.038848     -0.000097
