152
# total energy = -1061.43799061 eVH     10.35389      5.87395      7.64558        -0.156426      0.121882      1.008896
H     10.62451     15.10445      7.64558         0.406075     -0.101748      0.772549
H     10.62451      5.87395     13.33282        -0.113050      0.093599     -0.475395
H     10.35389     15.10445     13.33282         0.091799     -0.183425     -0.388983
H      7.64558     10.35389      5.87395         0.936389      0.184707      0.205669
H      7.64558     10.62451     15.10445         0.207130     -0.022475     -0.067105
H     13.33282     10.62451      5.87395        -0.628801     -0.029247      0.163672
H     13.33282     10.35389     15.10445        -0.327312     -0.066906     -0.065068
H      5.87395      7.64558     10.35389         0.134491      0.356836     -0.071082
H     15.10445      7.64558     10.62451        -0.137720      0.492680      0.202965
H      5.87395     13.33282     10.62451         0.119021     -0.600342      0.074951
H     15.10445     13.33282     10.35389        -0.231465     -0.429584      0.091159
H      5.87395     10.35389      7.64558         0.160418      0.248872      0.371825
H     15.10445     10.62451      7.64558        -0.136457     -0.379758      0.738559
H      5.87395     10.62451     13.33282         0.033368      0.131176     -0.708686
H     15.10445     10.35389     13.33282         0.101385     -0.278688     -0.762061
H     10.35389      7.64558      5.87395        -0.124003      0.436196      0.230263
H     10.62451      7.64558     15.10445         0.370627      0.616298     -0.114983
H     10.62451     13.33282      5.87395         0.147333     -0.579841      0.104190
H     10.35389     13.33282     15.10445         0.244647     -0.728281     -0.080479
H      7.64558      5.87395     10.35389         0.481745      0.150171     -0.151944
H      7.64558     15.10445     10.62451         0.414744     -0.160327      0.397082
H     13.33282      5.87395     10.62451        -0.381670      0.158579     -0.073257
H     13.33282     15.10445     10.35389        -0.570118     -0.288340      0.115179
H     12.45634     12.45634     19.01126         0.233373      0.264901     -0.246294
H     19.01126     19.01126     19.01126        -0.260463     -0.260557     -0.229316
H     19.01126     12.45634     12.45634        -0.233321      0.273200      0.238857
H     12.45634     19.01126     12.45634         0.277464     -0.211358      0.254620
C     10.35284      5.61067      6.59456         0.280871     -0.290921     -0.810797
C     10.62556     15.36773      6.59456        -0.194099      0.641902     -0.220111
C     10.62556      5.61067     14.38384         0.261067     -0.284128      0.502693
C     10.35284     15.36773     14.38384        -0.114294      0.271120      0.242116
C      6.59456     10.35284      5.61067        -0.892828     -0.112674     -0.233816
C      6.59456     10.62556     15.36773        -0.515353      0.045387      0.346790
C     14.38384     10.62556      5.61067         0.827783     -0.043108     -0.639172
C     14.38384     10.35284     15.36773         0.267048     -0.084211      0.369570
C      5.61067      6.59456     10.35284        -0.394290     -0.353970      0.070941
C     15.36773      6.59456     10.62556         0.291320     -0.559488     -0.092892
C      5.61067     14.38384     10.62556        -0.151764      0.528028     -0.338025
C     15.36773     14.38384     10.35284         0.410522      0.831025     -0.100646
C      5.61067     10.35284      6.59456        -0.302729     -0.142223     -0.104866
C     15.36773     10.62556      6.59456         0.230191      0.293750     -0.583462
C      5.61067     10.62556     14.38384        -0.340481     -0.033956      1.208338
C     15.36773     10.35284     14.38384         0.286255     -0.048291      1.026148
C     10.35284      6.59456      5.61067         0.082654     -0.274014     -0.491425
C     10.62556      6.59456     15.36773         0.009194     -0.784045      0.185540
C     10.62556     14.38384      5.61067        -0.383197      0.092527     -0.868733
C     10.35284     14.38384     15.36773        -0.262010      0.866377      0.258176
C      6.59456      5.61067     10.35284        -0.355492     -0.281397      0.253494
C      6.59456     15.36773     10.62556        -0.407481      0.555320     -0.014320
C     14.38384      5.61067     10.62556         0.460311     -0.348156      0.063214
C     14.38384     15.36773     10.35284         0.948578      0.265347     -0.056385
C     10.40319      3.19606      7.29314         0.005283      0.560486     -0.314902
C     10.35913      4.25547      6.23373        -0.009725     -0.511816      0.436287
C      0.08601      7.29314      7.29314        -0.013343     -0.878563     -0.552002
C      0.13007      6.23373      6.23373        -0.168079      0.874216      0.136843
C      0.08601      3.19606      3.19606        -0.013216      0.389710      0.384399
C      0.13007      4.25547      4.25547         0.057597     -0.190562     -0.616775
C     10.40319      7.29314      3.19606        -0.048517     -1.090034      0.742943
C     10.35913      6.23373      4.25547         0.012431      0.339003     -0.205810
C      7.29314     10.40319      3.19606        -1.220445     -0.081440      0.325578
C      6.23373     10.35913      4.25547         0.278798      0.024881     -0.699509
C      7.29314      0.08601      7.29314        -0.846439     -0.002673     -0.412442
C      6.23373      0.13007      6.23373         0.320514      0.052053      0.131079
C      3.19606      0.08601      3.19606         0.324653     -0.000400      0.426198
C      4.25547      0.13007      4.25547        -0.290245     -0.036696     -0.177753
C      3.19606     10.40319      7.29314         0.506203     -0.043602     -1.010231
C      4.25547     10.35913      6.23373        -0.309448     -0.068273      0.102860
C      3.19606      7.29314     10.40319         1.064908     -0.471466      0.003895
C      4.25547      6.23373     10.35913        -0.186830      0.166724     -0.001468
C      7.29314      7.29314      0.08601        -0.465455     -0.276970     -0.007558
C      6.23373      6.23373      0.13007         0.203243      0.114174     -0.142752
C      3.19606      3.19606      0.08601         0.346279      0.816116     -0.008857
C      4.25547      4.25547      0.13007        -0.495583     -0.190027      0.045821
C      7.29314      3.19606     10.40319        -0.199968      0.508605      0.025258
C      6.23373      4.25547     10.35913        -0.001333     -0.353671      0.043050
O     10.43466      3.58206      8.50569        -0.022574      0.132865      0.379887
O     10.54374     17.39634      8.50569         0.045141      0.059051      0.353494
O     10.54374      3.58206     12.47271         0.042340      0.197106     -0.575688
O     10.43466     17.39634     12.47271         0.026355     -0.000596     -0.428044
O      8.50569     10.43466      3.58206         0.761042     -0.069082      0.030685
O      8.50569     10.54374     17.39634         0.861301      0.024369     -0.160185
O     12.47271     10.54374      3.58206        -0.348855      0.038506      0.075670
O     12.47271     10.43466     17.39634        -0.388661     -0.034923      0.035057
O      3.58206      8.50569     10.43466        -0.095325      0.291068     -0.077034
O     17.39634      8.50569     10.54374        -0.109745      0.442687      0.040017
O      3.58206     12.47271     10.54374         0.143604     -0.791540     -0.014905
O     17.39634     12.47271     10.43466        -0.240239     -0.636801     -0.014839
O      3.58206     10.43466      8.50569         0.124457     -0.036217      0.781772
O     17.39634     10.54374      8.50569         0.009630      0.036635      0.328961
O      3.58206     10.54374     12.47271         0.068910      0.018932     -0.462450
O     17.39634     10.43466     12.47271         0.028009      0.013642     -0.258361
O     10.43466      8.50569      3.58206        -0.062339      0.607041     -0.056999
O     10.54374      8.50569     17.39634         0.025726      0.889682     -0.204879
O     10.54374     12.47271      3.58206         0.064983     -0.373285      0.083771
O     10.43466     12.47271     17.39634        -0.055509     -0.644419     -0.196850
O      8.50569      3.58206     10.43466         0.346471      0.079690     -0.052358
O      8.50569     17.39634     10.54374         0.540249     -0.153674     -0.006432
O     12.47271      3.58206     10.54374        -0.373313      0.061664      0.034166
O     12.47271     17.39634     10.43466        -0.824419     -0.137502      0.059324
O     11.90042     11.90042     19.56718        -0.246444     -0.282899      0.236787
O     19.56718     19.56718     19.56718         0.297666      0.295803      0.250121
O     19.56718     11.90042     11.90042         0.231072     -0.303991     -0.279797
O     11.90042     19.56718     11.90042        -0.274665      0.180248     -0.271236
O      9.45224      1.03696      9.45224        -0.112917      0.094604     -0.082431
O      1.03696      9.45224      9.45224         0.134219     -0.145270     -0.166943
O      1.03696      1.03696      1.03696         0.134884      0.199812      0.000498
O      9.45224      9.45224      1.03696        -0.207454     -0.164425      0.039119
Zr     10.48920      2.52580     10.48920         0.001582     -0.232331      0.153198
Zr     10.48920     18.45260     10.48920        -0.306301      0.298965     -0.164200
Zr     10.48920     10.48920      2.52580         0.328581      0.418284     -0.222561
Zr     10.48920     10.48920     18.45260         0.004528      0.011468      0.476838
Zr      2.52580     10.48920     10.48920        -0.552696      0.043634      0.328987
Zr     18.45260     10.48920     10.48920         0.271328     -0.149499      0.008179
Pd      9.15162     14.59557      9.21601         0.038557     -0.029814     -0.009856
Pd      8.45113     13.22964     13.83345         0.023144     -0.000297     -0.036268
Pd     12.14607     14.10482      8.64898         0.007430      0.012582      0.014545
Pd     12.26668     12.75256     10.90733        -0.027375      0.016075     -0.022509
Pd     11.80864      7.08396     11.94835        -0.009693      0.018941     -0.013784
Pd     11.14770     15.30745     10.87578        -0.025685     -0.011250      0.030429
Pd      9.62531     13.14987     11.42789         0.032492      0.025721     -0.006160
Pd     14.04875     12.38931      8.00557        -0.007411      0.016102     -0.025451
Pd     11.60303     11.76281      6.77325        -0.024184      0.007160     -0.019318
Pd      7.50792      8.54993      7.17970        -0.015166     -0.015727      0.014700
Pd      8.65189     12.01405      6.91547        -0.010019      0.022587      0.022533
Pd      9.78917      9.86984      8.02639        -0.018547      0.012304      0.037634
Pd      8.49385     14.66065      6.56474        -0.033661      0.019187     -0.005608
Pd     12.09453      9.05702      6.86353        -0.006365      0.000095     -0.012559
Pd      9.95187      9.99338      5.42043        -0.007328      0.017090     -0.032024
Pd      6.93027      9.21784     12.17757         0.002639     -0.034133     -0.006064
Pd     12.43088      6.53445      7.69532        -0.008125     -0.028790     -0.003480
Pd      5.59024     10.64998     10.11627        -0.016485      0.023121      0.004346
Pd      7.59678      6.65723     12.70409        -0.010830      0.026922      0.020861
Ir     11.29984      9.54955     12.87543         0.000617      0.027966      0.015896
Ir     13.09575      9.24182     11.12418        -0.008928     -0.059463     -0.033450
Ir      9.15703      8.43616     13.76642         0.007381      0.025315     -0.007330
Ir     10.28604     10.38069     15.09847        -0.006901     -0.008626     -0.035929
Ir      7.11052     11.89733     11.85986        -0.065382      0.054703     -0.052428
Ir     14.43348     11.18098     10.34903         0.047963      0.013937     -0.024100
Ir     12.29999     10.61103      9.08790        -0.033653      0.025308      0.013504
Ir      8.94383     10.81489     12.91934         0.039299     -0.084302      0.043955
Ir     10.04147     10.28249     10.65415         0.013883      0.020093     -0.095040
Ir     13.32383     11.22062     12.63757        -0.033963      0.006894      0.043051
Ir     11.12003     12.05042     13.36048        -0.018150     -0.029993      0.019649
Ir      7.96745     11.71845      9.53770        -0.010043      0.041866     -0.076068
Ir     11.32295      8.13459      9.48878        -0.092249      0.003017     -0.029820
Ir      6.95534     13.50161      8.30666         0.024637     -0.014490      0.041507
Ir      9.09657      7.28173      8.80776         0.055085      0.014816      0.010550
Ir      7.77025      9.20402      9.70941         0.002881      0.015484      0.030150
Ir     10.37420     12.31740      8.99950        -0.011356     -0.000067      0.014688
Ir      9.35041      7.89208     11.26458        -0.011953     -0.030659      0.009098
Ir     13.78010      8.47226      8.83218        -0.005447     -0.007173     -0.002492
