32
# total energy = -216.20941643 eVH      4.23995     -1.04776     10.00000        -0.009526      0.027465      0.000000
H      6.78386      7.41236     10.00000         0.009526     -0.027465      0.000000
H      9.81125     -2.16882     10.00000        -0.019295     -0.022750      0.000000
H      1.21256      8.53342     10.00000         0.019295      0.022750      0.000000
H      7.99642      3.21659     10.00000         0.029631     -0.005403     -0.000000
H      3.02739      3.14801     10.00000        -0.029631      0.005403      0.000000
H      1.21259      4.19579     10.00000         0.019022     -0.021982      0.000000
H      9.81122      2.16881     10.00000        -0.019022      0.021982      0.000000
H      3.02737      9.58120     10.00000        -0.029350     -0.005335      0.000000
H      7.99644     -3.21660     10.00000         0.029350      0.005335      0.000000
H      6.78386      5.31681     10.00000         0.010136      0.028363     -0.000000
H      4.23995      1.04779     10.00000        -0.010136     -0.028363      0.000000
C      4.82039     -1.97616     10.00000         0.012811     -0.022773      0.000000
C      6.20342      8.34076     10.00000        -0.012811      0.022773      0.000000
C     10.32503     -1.20196     10.00000         0.013500      0.024007      0.000000
C      0.69878      7.56656     10.00000        -0.013500     -0.024007     -0.000000
C      6.90222      3.17811     10.00000        -0.027917     -0.000078      0.000000
C      4.12159      3.18649     10.00000         0.027917      0.000078      0.000000
C      0.69879      5.16267     10.00000        -0.013317      0.022482      0.000000
C     10.32502      1.20193     10.00000         0.013317     -0.022482      0.000000
C      4.12159      9.54272     10.00000         0.027540     -0.000312     -0.000000
C      6.90222     -3.17812     10.00000        -0.027540      0.000312     -0.000000
C      6.20343      4.38844     10.00000        -0.014026     -0.024138      0.000000
C      4.82038      1.97616     10.00000         0.014026      0.024138      0.000000
C      6.23049     -1.93770     10.00000        -0.000031     -0.000950     -0.000000
C      4.79332      8.30230     10.00000         0.000031      0.000950      0.000000
C      9.58666     -0.00001     10.00000         0.000838     -0.000448     -0.000000
C      1.43715      6.36461     10.00000        -0.000838      0.000448     -0.000000
C      6.23050      1.93767     10.00000        -0.000809      0.001401      0.000000
C      4.79332      4.42693     10.00000         0.000809     -0.001401      0.000000
Zr      3.67459      6.36462     10.00000         0.000060     -0.000104      0.000000
Zr      7.34922     -0.00002     10.00000        -0.000060      0.000104      0.000000
