26
# total energy = -177.58884587 eVH      0.06993      6.30165      7.50000        -0.006685      0.011388     -0.000000
H      2.98874      1.80128      7.50000         0.002119     -0.022625     -0.000000
H      5.48030      5.38635      7.50000        -0.033760      0.040200     -0.000000
H      8.40179     -2.58800      7.50000         0.006685     -0.011388     -0.000000
H      5.48297      1.91237      7.50000        -0.002119      0.022625     -0.000000
H      2.99141     -1.67270      7.50000         0.033760     -0.040200     -0.000000
C      7.54226      2.58349      7.50000        -0.010675      0.036243     -0.000000
C      1.42909     -0.24172      7.50000        -0.003152      0.011842      0.000000
C      7.97156     -4.69801      7.50000        -0.007676      0.015651     -0.000000
C      0.92945      1.13015      7.50000         0.010675     -0.036243     -0.000000
C      7.04262      3.95536      7.50000         0.003152     -0.011842      0.000000
C      0.50015      8.41165      7.50000         0.007676     -0.015651     -0.000000
C      7.59975     -3.32205      7.50000        -0.014023      0.001713     -0.000000
C      6.52189      1.58373      7.50000        -0.002732      0.026220     -0.000000
C      2.79110     -0.59712      7.50000         0.008996     -0.004028     -0.000000
C      0.87197      7.03569      7.50000         0.014023     -0.001713     -0.000000
C      1.94982      2.12991      7.50000         0.002732     -0.026220      0.000000
C      5.68061      4.31076      7.50000        -0.008996      0.004028     -0.000000
O      6.40767     -2.80377      7.50000         0.019406     -0.023674     -0.000000
O      6.72050      0.30231      7.50000        -0.004655      0.004937      0.000000
O      3.89056      0.11345      7.50000         0.017351      0.002585     -0.000000
O      2.06404      6.51741      7.50000        -0.019406      0.023674      0.000000
O      1.75121      3.41133      7.50000         0.004655     -0.004937     -0.000000
O      4.58115      3.60019      7.50000        -0.017351     -0.002585     -0.000000
Ir      5.42897     -1.16275      7.50000        -0.038091      0.007318     -0.000000
Ir      3.04274      4.87639      7.50000         0.038091     -0.007318     -0.000000
