152
# total energy = -1024.29401455 eVH     10.35389      5.87395      7.64558         0.472430      0.044629      0.741968
H     10.62451     15.10445      7.64558         0.010463     -0.185548      0.579353
H     10.62451      5.87395     13.33282         0.114263      0.157816     -0.595156
H     10.35389     15.10445     13.33282        -0.411106     -0.055322     -0.759648
H      7.64558     10.35389      5.87395         0.338907      0.005924      0.175850
H      7.64558     10.62451     15.10445         0.853903     -0.343108     -0.031462
H     13.33282     10.62451      5.87395        -0.761122     -0.032999      0.156459
H     13.33282     10.35389     15.10445        -0.874439     -0.382480      0.189025
H      5.87395      7.64558     10.35389         0.211243      0.593417     -0.031631
H     15.10445      7.64558     10.62451        -0.142486      0.401574     -0.041810
H      5.87395     13.33282     10.62451         0.164408     -0.514469     -0.106412
H     15.10445     13.33282     10.35389        -0.096994     -1.154489     -0.010297
H      5.87395     10.35389      7.64558         0.136548      0.127058      0.494987
H     15.10445     10.62451      7.64558         0.051258      0.079164      1.039982
H      5.87395     10.62451     13.33282         0.113094     -0.036782     -0.421361
H     15.10445     10.35389     13.33282        -0.109264     -0.159280     -0.597294
H     10.35389      7.64558      5.87395         0.033636      0.968079      0.249938
H     10.62451      7.64558     15.10445         0.012306      0.280211     -0.178316
H     10.62451     13.33282      5.87395        -0.086971     -0.448256      0.323655
H     10.35389     13.33282     15.10445        -0.442267     -0.653462     -0.027154
H      7.64558      5.87395     10.35389         0.478013      0.120576      0.046319
H      7.64558     15.10445     10.62451         0.883578     -0.260305     -0.017903
H     13.33282      5.87395     10.62451        -0.566215      0.141616     -0.078154
H     13.33282     15.10445     10.35389        -0.640967     -0.060675      0.215508
H     12.45634     12.45634     19.01126         0.239117      0.274904     -0.235381
H     19.01126     19.01126     19.01126        -0.252814     -0.246425     -0.242463
H     19.01126     12.45634     12.45634        -0.261269      0.268972      0.221951
H     12.45634     19.01126     12.45634         0.230837     -0.264215      0.242967
C     10.35284      5.61067      6.59456        -0.188867     -0.622994      0.059846
C     10.62556     15.36773      6.59456        -0.020471      0.381069     -0.749189
C     10.62556      5.61067     14.38384        -0.018390     -0.072573      0.719333
C     10.35284     15.36773     14.38384         0.148945      0.724765      0.172263
C      6.59456     10.35284      5.61067        -0.376679     -0.025591     -0.267220
C      6.59456     10.62556     15.36773        -1.011648      0.346462      0.391619
C     14.38384     10.62556      5.61067         0.420154      0.309070     -0.603540
C     14.38384     10.35284     15.36773         0.948948     -0.009136      0.357849
C      5.61067      6.59456     10.35284        -0.387788     -0.478712      0.232717
C     15.36773      6.59456     10.62556         0.196896     -0.527922      0.028941
C      5.61067     14.38384     10.62556        -0.176751      0.563774      0.011451
C     15.36773     14.38384     10.35284         0.347516      0.018786     -0.123992
C      5.61067     10.35284      6.59456        -0.306268     -0.061935     -0.910578
C     15.36773     10.62556      6.59456         0.760291     -0.291815     -1.067618
C      5.61067     10.62556     14.38384        -0.481668      0.005588      0.298143
C     15.36773     10.35284     14.38384         0.666383     -0.107751      1.125885
C     10.35284      6.59456      5.61067        -0.246923     -0.625741     -0.847599
C     10.62556      6.59456     15.36773         0.050325     -0.293215      0.081436
C     10.62556     14.38384      5.61067         0.114951      1.237073     -0.442744
C     10.35284     14.38384     15.36773         0.210334      0.118536      0.698489
C      6.59456      5.61067     10.35284        -0.369505     -0.729244      0.066931
C      6.59456     15.36773     10.62556        -1.218138      0.281003      0.073794
C     14.38384      5.61067     10.62556         0.891243     -0.275832      0.025993
C     14.38384     15.36773     10.35284        -0.495836      0.745768     -0.329387
C     10.40319      3.19606      7.29314        -0.016551      0.829011     -0.392815
C     10.35913      4.25547      6.23373         0.040474     -0.457403      0.581856
C      0.08601      7.29314      7.29314        -0.018001     -0.491970     -0.353318
C      0.13007      6.23373      6.23373        -0.018899      0.016698      0.094849
C      0.08601      3.19606      3.19606        -0.002177      1.210118      0.184942
C      0.13007      4.25547      4.25547        -0.051562     -0.218567     -0.228531
C     10.40319      7.29314      3.19606        -0.002733     -1.042446      0.397728
C     10.35913      6.23373      4.25547         0.025040      0.467993     -0.651935
C      7.29314     10.40319      3.19606        -0.380196      0.043377      0.816160
C      6.23373     10.35913      4.25547         0.228620      0.088410     -0.117244
C      7.29314      0.08601      7.29314        -0.590496     -0.024050     -0.262483
C      6.23373      0.13007      6.23373         0.383145     -0.064631      0.442911
C      3.19606      0.08601      3.19606         0.886027     -0.015538      0.346902
C      4.25547      0.13007      4.25547        -0.105647     -0.057109     -0.491187
C      3.19606     10.40319      7.29314         0.474458     -0.000899     -0.763966
C      4.25547     10.35913      6.23373        -0.253338      0.106443      0.246963
C      3.19606      7.29314     10.40319         0.488980     -1.355987     -0.042826
C      4.25547      6.23373     10.35913        -0.377503      0.807763      0.042277
C      7.29314      7.29314      0.08601        -0.421231     -0.229722     -0.009730
C      6.23373      6.23373      0.13007         0.164554      0.144666     -0.015420
C      3.19606      3.19606      0.08601         0.247663      0.257739     -0.020300
C      4.25547      4.25547      0.13007        -0.098609     -0.049263      0.017814
C      7.29314      3.19606     10.40319        -0.360525      0.684851      0.013037
C      6.23373      4.25547     10.35913         1.100989      0.049859      0.004178
O     10.43466      3.58206      8.50569        -0.029788      0.058453      0.451307
O     10.54374     17.39634      8.50569        -0.004462     -0.086792      0.435890
O     10.54374      3.58206     12.47271         0.044741     -0.088884     -0.144389
O     10.43466     17.39634     12.47271        -0.055664     -0.047189     -0.477951
O      8.50569     10.43466      3.58206         0.319294     -0.031272     -0.044817
O      8.50569     10.54374     17.39634         0.682402      0.027492     -0.168090
O     12.47271     10.54374      3.58206        -0.730891     -0.034541      0.144787
O     12.47271     10.43466     17.39634        -0.443557     -0.027142     -0.044396
O      3.58206      8.50569     10.43466         0.139810      1.093944     -0.001008
O     17.39634      8.50569     10.54374        -0.080029      0.408981      0.065675
O      3.58206     12.47271     10.54374         0.069534     -0.414631      0.040533
O     17.39634     12.47271     10.43466        -0.158788     -0.700590      0.004606
O      3.58206     10.43466      8.50569         0.027105     -0.073552      0.652366
O     17.39634     10.54374      8.50569        -0.065651      0.043642      0.331960
O      3.58206     10.54374     12.47271        -0.006272      0.024267     -0.306180
O     17.39634     10.43466     12.47271        -0.240408      0.019431     -0.747245
O     10.43466      8.50569      3.58206         0.112842      0.846901      0.201101
O     10.54374      8.50569     17.39634         0.035367      0.674422     -0.161469
O     10.54374     12.47271      3.58206        -0.016901     -1.015064      0.214100
O     10.43466     12.47271     17.39634        -0.029224     -0.884953     -0.192888
O      8.50569      3.58206     10.43466         0.520498      0.101152     -0.019628
O      8.50569     17.39634     10.54374         0.538506     -0.211130     -0.016367
O     12.47271      3.58206     10.54374        -0.467586      0.155314      0.056464
O     12.47271     17.39634     10.43466        -0.377276      0.046476     -0.009412
O     11.90042     11.90042     19.56718        -0.276189     -0.325843      0.262035
O     19.56718     19.56718     19.56718         0.281944      0.283564      0.287343
O     19.56718     11.90042     11.90042         0.289887     -0.305188     -0.198888
O     11.90042     19.56718     11.90042        -0.269871      0.278927     -0.246941
O      9.45224      1.03696      9.45224        -0.086815      0.054853     -0.053614
O      1.03696      9.45224      9.45224         0.036130     -0.174543     -0.108383
O      1.03696      1.03696      1.03696         0.002699      0.109066      0.216830
O      9.45224      9.45224      1.03696        -0.057295     -0.086186      0.137558
Zr     10.48920      2.52580     10.48920        -0.020775     -0.115074     -0.173900
Zr     10.48920     18.45260     10.48920         0.021074      0.236624     -0.028724
Zr     10.48920     10.48920      2.52580        -0.083755     -0.168179     -0.551282
Zr     10.48920     10.48920     18.45260        -0.032747      0.043392      0.463136
Zr      2.52580     10.48920     10.48920        -0.365517      0.322317      0.097750
Zr     18.45260     10.48920     10.48920         0.200967      0.037433     -0.252561
Pd      8.58111      9.91679     13.22509        -0.028470     -0.018286      0.031737
Pd     10.53211      9.50794     10.28440         0.006684     -0.007435     -0.018559
Pd     13.37912      8.73636     12.50942         0.000396     -0.017632     -0.053860
Pd     10.43731     10.63431     15.09565         0.031469      0.017579     -0.012523
Pd     12.99071     11.35584     13.46622        -0.035897     -0.002090      0.048620
Pd     14.96329     10.72021     11.30060        -0.048385     -0.013681     -0.006445
Pd      6.82502      7.87890     12.55160        -0.003272     -0.035411     -0.046369
Pd      9.23487      7.22282      9.58291        -0.012297      0.011541     -0.034349
Pd      9.49071      7.53998     12.30824         0.009641      0.022601      0.038649
Pd     11.75295      7.21469     10.97829         0.007797     -0.060585     -0.018943
Pd     11.59771      7.85878      8.35956         0.025626      0.022411      0.029379
Pd      7.16984     11.73323     11.63336        -0.009274      0.010882     -0.018814
Pd      9.20980     14.35645      9.37712         0.030858      0.002278     -0.017901
Pd      8.18184     12.40560     14.21774        -0.014331     -0.013024     -0.037975
Pd     14.13557     14.19527      8.35020         0.057089      0.029416     -0.009273
Pd     11.65080     13.34393      8.83391         0.000091      0.015281     -0.001684
Pd     14.08513     11.61869      8.94876         0.009690      0.033899      0.006136
Pd      8.76115     13.92112     12.13152        -0.021408      0.019512      0.000711
Pd     12.20127     13.91118     13.98683         0.019407     -0.003332     -0.018978
Pd     11.39832     14.09178     11.37356         0.012792      0.018236      0.015014
Pd     14.05366     13.43316     12.12237        -0.049856     -0.030875     -0.015632
Pd     12.33661     11.60346     10.90488        -0.017770      0.000712     -0.015089
Pd     12.86949     12.62174      6.60691         0.021002     -0.012820      0.032768
Pd     13.89420      8.89293      7.59635         0.029480     -0.015221      0.005674
Pd      6.96399      8.45199      8.51259        -0.009457      0.005935     -0.020250
Pd      5.55636     10.02132     10.23467        -0.021293      0.001433     -0.012004
Pd      9.34954      9.48915      7.58576         0.028625     -0.022830     -0.035438
Pd      8.50332      7.00856      6.96645         0.007490     -0.022753      0.020632
Pd      9.67938     11.94453     10.56841        -0.008056     -0.011702     -0.032136
Pd     11.72621     10.65480      8.12142         0.020834      0.011100     -0.025883
Pd     11.69047      8.99678      5.92405         0.034965      0.004448      0.033146
Pd     10.45298     11.35928      5.81139        -0.011298     -0.020270     -0.047480
Ir     11.05602      9.64312     12.75540        -0.016349      0.007184      0.007061
Ir     13.17906      9.30474     10.00563        -0.016921      0.016328     -0.031798
Ir     10.52186     12.09760     12.93902         0.010455     -0.007810      0.015560
Ir      7.69185     11.01017      9.14589         0.051351      0.029716     -0.053223
Ir      9.46673     12.12771      8.01982         0.014054     -0.017673      0.054901
Ir      8.06112      9.24509     10.80996        -0.026427      0.002141     -0.016887
