152
# total energy = -1110.39135124 eVH     10.35389      5.87395      7.64558        -0.383170     -0.131548      1.138485
H     10.62451     15.10445      7.64558         0.330976      0.078005      0.922165
H     10.62451      5.87395     13.33282        -0.319659     -0.678689     -1.345169
H     10.35389     15.10445     13.33282        -0.588705      0.426337     -0.331588
H      7.64558     10.35389      5.87395         0.556498     -0.522680     -0.099890
H      7.64558     10.62451     15.10445         0.384455     -0.235103      0.043840
H     13.33282     10.62451      5.87395        -0.576337      0.645386     -0.046612
H     13.33282     10.35389     15.10445        -0.525963      0.390153      0.155191
H      5.87395      7.64558     10.35389         0.149359      0.554178      0.028580
H     15.10445      7.64558     10.62451         0.429483      1.016409      0.281147
H      5.87395     13.33282     10.62451        -0.221340     -0.501312      0.361788
H     15.10445     13.33282     10.35389         0.027707     -0.299841     -0.379834
H      5.87395     10.35389      7.64558        -0.100903     -0.406468      1.482226
H     15.10445     10.62451      7.64558         0.218793      0.509813      1.324173
H      5.87395     10.62451     13.33282        -0.215325     -0.369336     -1.203338
H     15.10445     10.35389     13.33282         0.609829      0.994318     -1.533062
H     10.35389      7.64558      5.87395        -0.580465      0.526875     -0.174334
H     10.62451      7.64558     15.10445        -0.135018      0.455945      0.160610
H     10.62451     13.33282      5.87395         0.870612     -1.334100     -0.313822
H     10.35389     13.33282     15.10445         0.228904     -0.562466     -0.104470
H      7.64558      5.87395     10.35389         0.719224      0.165018     -0.171303
H      7.64558     15.10445     10.62451         1.979750      0.752965      0.220583
H     13.33282      5.87395     10.62451        -2.661058     -0.913111     -0.507170
H     13.33282     15.10445     10.35389        -0.877846     -0.055734     -0.252527
H     12.45634     12.45634     19.01126         0.271980      0.257879     -0.227339
H     19.01126     19.01126     19.01126        -0.266795     -0.254832     -0.238667
H     19.01126     12.45634     12.45634        -0.283950      0.281625      0.185059
H     12.45634     19.01126     12.45634         0.256391     -0.250709      0.235792
C     10.35284      5.61067      6.59456         0.076271     -0.487770     -1.207391
C     10.62556     15.36773      6.59456         0.189826      0.754599     -0.812296
C     10.62556      5.61067     14.38384         0.182190     -0.297357      1.787529
C     10.35284     15.36773     14.38384         0.086846      0.384244      1.794224
C      6.59456     10.35284      5.61067        -1.137567     -0.110259     -0.891966
C      6.59456     10.62556     15.36773        -0.701882     -0.095897      0.791812
C     14.38384     10.62556      5.61067         0.841971     -0.111066     -0.992693
C     14.38384     10.35284     15.36773         1.181443      0.168319      1.100033
C      5.61067      6.59456     10.35284        -0.668437     -0.897197     -0.187562
C     15.36773      6.59456     10.62556         2.003774     -0.314744     -0.187422
C      5.61067     14.38384     10.62556        -1.568409     -0.012056     -0.141184
C     15.36773     14.38384     10.35284         0.485054      0.088120      0.001694
C      5.61067     10.35284      6.59456        -0.275104      0.210028     -1.351877
C     15.36773     10.62556      6.59456         0.294098     -0.261973     -0.983628
C      5.61067     10.62556     14.38384        -0.255546      0.444479      1.458080
C     15.36773     10.35284     14.38384         0.010625     -0.481752      1.943978
C     10.35284      6.59456      5.61067        -0.162220     -0.852496     -0.696293
C     10.62556      6.59456     15.36773        -0.117594     -0.720627      1.046738
C     10.62556     14.38384      5.61067        -0.502276      1.990661     -0.756920
C     10.35284     14.38384     15.36773        -0.261829      1.366182      0.500573
C      6.59456      5.61067     10.35284        -0.985824     -0.410172      0.093230
C      6.59456     15.36773     10.62556        -1.261214      0.370332     -0.332933
C     14.38384      5.61067     10.62556         1.273566     -1.298197      0.211523
C     14.38384     15.36773     10.35284         0.457166      0.311413      0.084788
C     10.40319      3.19606      7.29314         0.001188      0.305205     -0.110042
C     10.35913      4.25547      6.23373         0.141885     -0.570725      0.015956
C      0.08601      7.29314      7.29314        -0.053316     -0.282031     -0.420657
C      0.13007      6.23373      6.23373        -0.122956      0.674039      0.018764
C      0.08601      3.19606      3.19606        -0.105832      1.659602      0.166476
C      0.13007      4.25547      4.25547        -0.095218     -0.393580     -1.210404
C     10.40319      7.29314      3.19606         0.015762     -0.447076      0.122101
C     10.35913      6.23373      4.25547         0.263662      0.085910     -0.532164
C      7.29314     10.40319      3.19606        -1.693902      0.010577      0.324517
C      6.23373     10.35913      4.25547         0.668347      0.080730     -0.621582
C      7.29314      0.08601      7.29314        -0.410102     -0.014989     -0.316059
C      6.23373      0.13007      6.23373         0.721558     -0.057995      0.247956
C      3.19606      0.08601      3.19606         0.660604     -0.018144      0.180504
C      4.25547      0.13007      4.25547        -0.359261     -0.084524     -0.566104
C      3.19606     10.40319      7.29314         0.352464      0.022914     -0.319047
C      4.25547     10.35913      6.23373        -0.739231      0.076873      0.363398
C      3.19606      7.29314     10.40319         0.286177     -0.203493     -0.006530
C      4.25547      6.23373     10.35913         0.042646      0.634685      0.091649
C      7.29314      7.29314      0.08601        -0.716832     -0.610525     -0.026583
C      6.23373      6.23373      0.13007         0.901001      1.124624     -0.066392
C      3.19606      3.19606      0.08601         0.823100      0.513689      0.002324
C      4.25547      4.25547      0.13007        -0.327740     -1.764770     -0.129499
C      7.29314      3.19606     10.40319        -0.325483      0.271336     -0.004402
C      6.23373      4.25547     10.35913         0.507626     -0.021807      0.230620
O     10.43466      3.58206      8.50569        -0.048582      0.186556      0.259486
O     10.54374     17.39634      8.50569         0.042266     -0.236109      0.486318
O     10.54374      3.58206     12.47271         0.083847     -0.074151     -0.024144
O     10.43466     17.39634     12.47271        -0.023126     -0.141704     -0.269677
O      8.50569     10.43466      3.58206         0.992414      0.189313      0.378099
O      8.50569     10.54374     17.39634         0.578920      0.084420     -0.229496
O     12.47271     10.54374      3.58206        -0.414576     -0.040740      0.182424
O     12.47271     10.43466     17.39634        -0.507718     -0.067894     -0.193379
O      3.58206      8.50569     10.43466         0.184328      0.424154     -0.028918
O     17.39634      8.50569     10.54374        -0.230597      0.713268      0.046006
O      3.58206     12.47271     10.54374         0.162120     -0.681819      0.026129
O     17.39634     12.47271     10.43466        -0.186505     -0.475334     -0.010534
O      3.58206     10.43466      8.50569         0.230327     -0.061520      0.405578
O     17.39634     10.54374      8.50569        -0.171747      0.037310      0.412308
O      3.58206     10.54374     12.47271         0.148173      0.021402     -0.303918
O     17.39634     10.43466     12.47271         0.080350     -0.051545     -0.071602
O     10.43466      8.50569      3.58206         0.004341      0.273338      0.183377
O     10.54374      8.50569     17.39634         0.069736      0.427559     -0.174951
O     10.54374     12.47271      3.58206        -0.222004     -0.974336      0.331426
O     10.43466     12.47271     17.39634        -0.082400     -0.450552     -0.245114
O      8.50569      3.58206     10.43466         0.489684      0.197404     -0.010145
O      8.50569     17.39634     10.54374         0.665234     -0.203053      0.022182
O     12.47271      3.58206     10.54374        -0.746820      0.280295      0.037883
O     12.47271     17.39634     10.43466        -0.432845     -0.205616     -0.043722
O     11.90042     11.90042     19.56718        -0.347130     -0.307335      0.260790
O     19.56718     19.56718     19.56718         0.324306      0.311694      0.283975
O     19.56718     11.90042     11.90042         0.274796     -0.273939     -0.138440
O     11.90042     19.56718     11.90042        -0.305319      0.283387     -0.233211
O      9.45224      1.03696      9.45224        -0.061046      0.073075     -0.045374
O      1.03696      9.45224      9.45224         0.035816     -0.075467     -0.070270
O      1.03696      1.03696      1.03696         0.063208      0.149209      0.096067
O      9.45224      9.45224      1.03696        -0.142537     -0.097918      0.096372
Zr     10.48920      2.52580     10.48920         0.163313     -0.172763     -0.167485
Zr     10.48920     18.45260     10.48920        -0.101379      0.186912     -0.050444
Zr     10.48920     10.48920      2.52580         0.342905     -0.310381     -0.204282
Zr     10.48920     10.48920     18.45260         0.014160     -0.088379      0.200557
Zr      2.52580     10.48920     10.48920        -0.071547      0.179265     -0.052388
Zr     18.45260     10.48920     10.48920         0.146325     -0.132371     -0.252378
Ir     12.03853     12.48416     10.45497         0.003955     -0.006775     -0.007094
Ir     11.21683      7.41351     10.24783         0.008544      0.000223     -0.017997
Ir      8.85598      7.35038     11.52633         0.005698     -0.007276     -0.013346
Ir      7.46343     11.64807      7.65758        -0.009425     -0.002509     -0.000566
Ir     11.59543     12.07357      7.11295         0.002225     -0.005795     -0.002613
Ir     13.78366      8.99314      7.52445         0.005719      0.000193     -0.009302
Ir     12.47179     13.95276      8.40762        -0.003070     -0.002427     -0.002980
Ir      9.73894     11.25495      5.54079         0.003874     -0.002391     -0.007131
Ir      9.07440     13.44412      7.07676         0.000096     -0.007520     -0.000589
Ir      9.26717      9.67195      7.50053        -0.005283      0.006104     -0.005643
Ir     13.28634      7.03658     11.95860         0.000300     -0.005079      0.002499
Ir     13.63546      7.04168      9.10811         0.014457      0.003658     -0.006121
Ir     11.04528      7.59123     12.80247        -0.000262     -0.002385     -0.016385
Ir     13.59868     11.56478      8.75114        -0.006069     -0.000514      0.000197
Ir     11.50269      9.62359      6.21976        -0.002135     -0.009129     -0.005852
Ir      7.16077      9.14729      8.92025         0.002520     -0.006985     -0.005839
Ir     14.05982     11.43953     11.64729         0.001674      0.001959     -0.004448
Ir     11.66095      9.82820      8.86170         0.000905     -0.010422     -0.008954
Ir      9.44333      9.50001     10.22604         0.007255     -0.002410     -0.008934
Ir     13.87927      9.41265     10.16804         0.002654      0.003017     -0.007720
Ir     13.83603      9.16322     12.88092         0.008890      0.000666     -0.008379
Ir     11.70226      9.75868     11.53966         0.003787     -0.003064     -0.010749
Ir      9.91641     11.72935      8.96245         0.002844     -0.014032     -0.002024
Ir      9.10810      7.43349      8.77232         0.013103      0.001410     -0.018304
Ir     11.63322      7.52565      7.72427         0.026545     -0.016867     -0.016009
Ir      9.25626      9.46746     13.00345         0.000412     -0.007747     -0.003811
Ir      7.50613     13.89931      8.99418        -0.003796     -0.001729      0.001782
Ir     10.86383     14.09968     11.95133        -0.007521     -0.001635      0.007148
Ir     10.11047     14.14558      9.51528        -0.000453     -0.001055     -0.001601
Ir      9.79068     11.67866     11.72306        -0.002334     -0.006715     -0.002247
Ir      7.59027     11.56142     10.20641         0.001171     -0.004346     -0.003127
Ir      8.34395     13.73372     11.58193        -0.002897     -0.005105     -0.000868
Ir      7.52538     11.54216     12.82158        -0.000681     -0.008732     -0.001708
Ir      9.77786     11.59159     14.34213         0.003914     -0.010140      0.000056
Ir     13.46518     13.88427     12.18615        -0.003931     -0.000906     -0.001735
Ir     11.98921     12.04344     13.07695         0.003667     -0.005810     -0.001135
Ir     11.58561      9.78105     14.17887         0.003997     -0.011414     -0.009416
Ir      7.15772      9.34650     11.47948         0.000457     -0.008267     -0.005514
