152
# total energy = -1004.38157004 eVH     10.35389      5.87395      7.64558        -0.104946      0.148191      0.647387
H     10.62451     15.10445      7.64558        -0.206001     -0.160255      0.588551
H     10.62451      5.87395     13.33282         0.408533      0.034755     -0.878171
H     10.35389     15.10445     13.33282         0.059424     -0.179787     -0.517118
H      7.64558     10.35389      5.87395         0.364947      0.046462      0.147589
H      7.64558     10.62451     15.10445         0.847203      0.583812      0.006502
H     13.33282     10.62451      5.87395        -0.446989      0.020330      0.209334
H     13.33282     10.35389     15.10445        -0.806146     -0.229776      0.034562
H      5.87395      7.64558     10.35389         0.136173      1.746548      0.095975
H     15.10445      7.64558     10.62451        -0.074951      0.498954      0.242719
H      5.87395     13.33282     10.62451         0.205316     -0.581404     -0.012682
H     15.10445     13.33282     10.35389         0.225266     -1.366588     -0.451370
H      5.87395     10.35389      7.64558         0.136694      0.035363      0.510755
H     15.10445     10.62451      7.64558        -0.209591      0.932400      1.436765
H      5.87395     10.62451     13.33282        -0.058578      0.570623     -1.303248
H     15.10445     10.35389     13.33282         0.110370     -0.207119     -0.788570
H     10.35389      7.64558      5.87395         0.345563      1.286760      0.146135
H     10.62451      7.64558     15.10445         0.531394      0.778264     -0.087721
H     10.62451     13.33282      5.87395        -0.544245     -0.725232      0.295944
H     10.35389     13.33282     15.10445        -0.237052     -0.514153     -0.330458
H      7.64558      5.87395     10.35389         1.212624     -0.265699     -0.090680
H      7.64558     15.10445     10.62451         0.823618     -0.197561     -0.036848
H     13.33282      5.87395     10.62451        -0.596136      0.115402      0.660823
H     13.33282     15.10445     10.35389        -0.479470     -0.022959     -0.199661
H     12.45634     12.45634     19.01126         0.269224      0.250916     -0.231342
H     19.01126     19.01126     19.01126        -0.266211     -0.267274     -0.220333
H     19.01126     12.45634     12.45634        -0.277943      0.254213      0.228943
H     12.45634     19.01126     12.45634         0.246021     -0.281296      0.237049
C     10.35284      5.61067      6.59456        -0.139548     -0.792869     -0.431649
C     10.62556     15.36773      6.59456         0.114488      0.270202     -0.222523
C     10.62556      5.61067     14.38384        -0.045963     -0.490228      0.564841
C     10.35284     15.36773     14.38384         0.009831      0.241848      0.498515
C      6.59456     10.35284      5.61067        -0.493470      0.049839     -0.341578
C      6.59456     10.62556     15.36773        -0.945590      0.206317      0.716187
C     14.38384     10.62556      5.61067         0.726122      0.035757     -0.960715
C     14.38384     10.35284     15.36773         0.922434     -0.124160      0.402007
C      5.61067      6.59456     10.35284        -0.935189     -1.065446     -0.546053
C     15.36773      6.59456     10.62556         0.718580     -0.013703     -0.234070
C      5.61067     14.38384     10.62556        -0.242113      0.637865      0.014239
C     15.36773     14.38384     10.35284         0.299552      1.353569      0.044950
C      5.61067     10.35284      6.59456        -0.269544      0.011656     -0.679073
C     15.36773     10.62556      6.59456         0.456940     -0.390194     -1.033871
C      5.61067     10.62556     14.38384        -0.426433     -0.019908      0.991808
C     15.36773     10.35284     14.38384         0.469234     -0.066921      0.928348
C     10.35284      6.59456      5.61067        -0.116273     -0.946926     -0.381894
C     10.62556      6.59456     15.36773         0.091811     -0.721612      0.506023
C     10.62556     14.38384      5.61067         0.151739      1.041101     -0.372028
C     10.35284     14.38384     15.36773        -0.019325      1.021360      0.492418
C      6.59456      5.61067     10.35284        -0.605174     -1.276046      0.061343
C      6.59456     15.36773     10.62556        -0.959521      0.169299      0.112992
C     14.38384      5.61067     10.62556        -0.138632     -0.502203     -0.305533
C     14.38384     15.36773     10.35284         0.217810      0.617561     -0.075690
C     10.40319      3.19606      7.29314         0.003625      0.830898     -0.572857
C     10.35913      4.25547      6.23373         0.028673     -0.530852      0.132665
C      0.08601      7.29314      7.29314        -0.024688     -0.982365     -0.237197
C      0.13007      6.23373      6.23373        -0.071987      0.391062      0.330673
C      0.08601      3.19606      3.19606         0.052521      1.285983      0.149685
C      0.13007      4.25547      4.25547        -0.018000     -0.330970     -0.434716
C     10.40319      7.29314      3.19606        -0.011259     -0.527777      0.249328
C     10.35913      6.23373      4.25547        -0.023364      0.126767     -0.705859
C      7.29314     10.40319      3.19606        -0.341542      0.024248      0.408348
C      6.23373     10.35913      4.25547         0.222805      0.088050     -0.101331
C      7.29314      0.08601      7.29314        -1.041255     -0.087535     -0.400051
C      6.23373      0.13007      6.23373         0.653951     -0.188039      0.420141
C      3.19606      0.08601      3.19606         1.164748     -0.019801      0.342824
C      4.25547      0.13007      4.25547        -0.636565     -0.157039     -0.195128
C      3.19606     10.40319      7.29314         0.554711      0.030429     -0.298957
C      4.25547     10.35913      6.23373        -0.240318      0.099972      0.215969
C      3.19606      7.29314     10.40319         0.327275     -0.747623      0.039563
C      4.25547      6.23373     10.35913        -1.087028      0.093415      0.182473
C      7.29314      7.29314      0.08601        -0.478020     -0.502802     -0.016237
C      6.23373      6.23373      0.13007         0.492419      0.319709      0.017394
C      3.19606      3.19606      0.08601         0.556461      0.414698     -0.020872
C      4.25547      4.25547      0.13007        -0.035773     -0.749802     -0.103601
C      7.29314      3.19606     10.40319        -0.394858      0.507824      0.054900
C      6.23373      4.25547     10.35913         0.568361     -0.734724      0.203654
O     10.43466      3.58206      8.50569         0.012785      0.109430      0.529743
O     10.54374     17.39634      8.50569         0.053028     -0.029871      0.286970
O     10.54374      3.58206     12.47271        -0.003400     -0.074126     -0.152661
O     10.43466     17.39634     12.47271        -0.037182     -0.120938     -0.445245
O      8.50569     10.43466      3.58206         0.463888     -0.031741      0.086877
O      8.50569     10.54374     17.39634         0.833394     -0.064998     -0.167333
O     12.47271     10.54374      3.58206        -0.873949      0.131378      0.107454
O     12.47271     10.43466     17.39634        -0.608741      0.024280     -0.163622
O      3.58206      8.50569     10.43466         0.187979      0.795487     -0.019720
O     17.39634      8.50569     10.54374        -0.149393      0.676983      0.029664
O      3.58206     12.47271     10.54374         0.109139     -0.551960      0.053570
O     17.39634     12.47271     10.43466        -0.168338     -0.606562     -0.045100
O      3.58206     10.43466      8.50569         0.082691     -0.050411      0.426897
O     17.39634     10.54374      8.50569         0.037779      0.093541      0.381482
O      3.58206     10.54374     12.47271        -0.017194      0.028070     -0.277586
O     17.39634     10.43466     12.47271        -0.158378     -0.031710     -0.569514
O     10.43466      8.50569      3.58206        -0.028001      0.614979      0.169775
O     10.54374      8.50569     17.39634        -0.096258      0.803938     -0.218548
O     10.54374     12.47271      3.58206         0.109673     -0.956498      0.162630
O     10.43466     12.47271     17.39634         0.061468     -0.683835     -0.169559
O      8.50569      3.58206     10.43466         0.569628      0.139692     -0.046494
O      8.50569     17.39634     10.54374         0.558650     -0.149857      0.010179
O     12.47271      3.58206     10.54374        -0.703277      0.151950      0.018250
O     12.47271     17.39634     10.43466        -0.463847     -0.081058     -0.032599
O     11.90042     11.90042     19.56718        -0.322524     -0.285021      0.246064
O     19.56718     19.56718     19.56718         0.297745      0.314639      0.215005
O     19.56718     11.90042     11.90042         0.342286     -0.277214     -0.239013
O     11.90042     19.56718     11.90042        -0.269033      0.350343     -0.245871
O      9.45224      1.03696      9.45224        -0.028576      0.084253     -0.128403
O      1.03696      9.45224      9.45224         0.063243     -0.030771     -0.121655
O      1.03696      1.03696      1.03696         0.069802      0.094805      0.098936
O      9.45224      9.45224      1.03696        -0.046006     -0.035830      0.081411
Zr     10.48920      2.52580     10.48920        -0.068615     -0.203839      0.058446
Zr     10.48920     18.45260     10.48920         0.018328      0.064425      0.129121
Zr     10.48920     10.48920      2.52580        -0.315984     -0.358594     -0.371464
Zr     10.48920     10.48920     18.45260         0.140484      0.008352      0.396453
Zr      2.52580     10.48920     10.48920        -0.178945      0.042170     -0.053612
Zr     18.45260     10.48920     10.48920         0.168679     -0.011518      0.073453
Pd     12.95371      8.44360      9.86597         0.021342      0.086145     -0.075230
Pd      6.40137      9.54300     10.33228        -0.014952      0.132761     -0.009152
Pd      6.97765     11.63154     11.79383        -0.078916     -0.006439     -0.011800
Pd     12.36753     13.46466      7.24468        -0.046133     -0.140011     -0.001506
Pd     12.13384      7.89912      7.18432         0.014083     -0.064968     -0.072911
Pd      8.49618      7.31145      6.86063        -0.061740     -0.007296      0.084912
Pd     11.43670     11.50180      5.62647        -0.034347     -0.026957     -0.008337
Pd     14.56165      8.85376      7.79043        -0.047591     -0.019228     -0.107249
Pd      9.86574     11.79282      7.95057         0.003468      0.034988      0.000284
Pd      7.06040      7.13527     11.99592         0.054289      0.024633      0.068208
Pd      6.35568      7.51088      8.39315         0.055688      0.013596      0.057072
Pd      7.23923      9.19698     13.53962        -0.015155      0.014707      0.091627
Pd     11.39547      6.29626      9.24700         0.014097     -0.059380     -0.082186
Pd     10.01523      9.54363      6.50731        -0.064878     -0.023865      0.048490
Pd      9.07260     13.96431      9.38099        -0.005555      0.064748     -0.018423
Pd     10.89478      7.42200     11.49801        -0.041645     -0.043279      0.020095
Pd     10.46635      9.07345      9.23408        -0.127761     -0.028929      0.000073
Pd      9.43786     11.55617     10.56249         0.097129     -0.024427      0.028180
Pd      8.81890      7.12017      9.57386         0.126079      0.000545     -0.003723
Pd      9.16349      7.41162     13.52895        -0.027952     -0.046464     -0.032588
Pd      8.80248      9.19727     11.37133        -0.024343     -0.049420     -0.018154
Pd     12.25160     10.52726      7.94930         0.061808      0.001367      0.018639
Pd      7.23385     11.93350      9.13137         0.001929      0.037174      0.010295
Pd      8.11054      9.59886      8.32514        -0.017061      0.018131     -0.032109
Pd     14.01145      6.36794      8.51272        -0.005096      0.029881     -0.005928
Pd     13.25805      8.45132     12.45783        -0.090887      0.068121     -0.042156
Pd      9.05611     11.41800     13.32699         0.021661      0.009044      0.020223
Pd     13.97087     12.17804      8.90215        -0.053241     -0.035526      0.126307
Pd     13.18350     11.11196     13.14207         0.038512      0.017996     -0.029727
Pd     14.59851     10.35543     10.80049        -0.060939      0.005581      0.047452
Pd     11.95665     10.72911     10.74050         0.019730      0.027236     -0.034662
Pd     11.55825     13.18107      9.70677        -0.042209      0.010107      0.072823
Pd     13.64918     13.03085     11.50233        -0.030026      0.022380      0.033770
Pd     11.15869     12.78587     12.36676         0.014736     -0.013348     -0.047313
Pd     11.24366     11.59057     14.86034        -0.051346     -0.048419      0.033788
Pd     10.96010      9.63576     12.94945        -0.020965     -0.069571      0.045923
Pd      9.50572      9.55299     15.22311         0.049035      0.020730      0.004843
Pd      8.70224     13.76493     12.04461         0.049358     -0.028476     -0.024869
