152
# total energy = -1060.05861705 eVH     10.35389      5.87395      7.64558        -0.275267      0.026688      1.135016
H     10.62451     15.10445      7.64558         0.059370     -0.087311      0.937477
H     10.62451      5.87395     13.33282        -0.256009      0.076264     -0.789894
H     10.35389     15.10445     13.33282         0.094646     -0.302277     -0.879773
H      7.64558     10.35389      5.87395         0.933290     -0.127519      0.184597
H      7.64558     10.62451     15.10445         0.335589     -0.040725     -0.071187
H     13.33282     10.62451      5.87395        -0.860094      0.196245      0.205188
H     13.33282     10.35389     15.10445        -0.277624     -0.012285     -0.070152
H      5.87395      7.64558     10.35389         0.088583      0.417610     -0.012162
H     15.10445      7.64558     10.62451         0.004869      0.497860     -0.038517
H      5.87395     13.33282     10.62451        -0.021382     -0.964037      0.076524
H     15.10445     13.33282     10.35389        -0.077831     -0.319200      0.003230
H      5.87395     10.35389      7.64558         0.281529      0.115000      0.408716
H     15.10445     10.62451      7.64558        -0.124464     -0.173060      0.660978
H      5.87395     10.62451     13.33282        -0.087151      0.464591     -0.613603
H     15.10445     10.35389     13.33282         0.242011     -0.624659     -0.818607
H     10.35389      7.64558      5.87395        -0.043118      0.484736      0.335001
H     10.62451      7.64558     15.10445         0.255706      0.781621     -0.027948
H     10.62451     13.33282      5.87395         0.130048     -0.573600      0.206888
H     10.35389     13.33282     15.10445         0.038149     -0.287050     -0.144651
H      7.64558      5.87395     10.35389         0.343007      0.097775      0.027700
H      7.64558     15.10445     10.62451         0.376714     -0.117334      0.164512
H     13.33282      5.87395     10.62451        -0.314416      0.129682     -0.029989
H     13.33282     15.10445     10.35389        -0.655323     -0.124606      0.145743
H     12.45634     12.45634     19.01126         0.255412      0.271161     -0.229031
H     19.01126     19.01126     19.01126        -0.245753     -0.268435     -0.245895
H     19.01126     12.45634     12.45634        -0.251270      0.269658      0.235396
H     12.45634     19.01126     12.45634         0.290344     -0.235944      0.234374
C     10.35284      5.61067      6.59456         0.399409     -0.421109     -1.440715
C     10.62556     15.36773      6.59456        -0.148340      0.589087     -0.647432
C     10.62556      5.61067     14.38384         0.384731     -0.343000      0.832407
C     10.35284     15.36773     14.38384        -0.228562      0.218338      1.093232
C      6.59456     10.35284      5.61067        -1.379139      0.021318     -0.235120
C      6.59456     10.62556     15.36773        -0.656824      0.063826      0.373902
C     14.38384     10.62556      5.61067         1.302424     -0.166156     -0.628688
C     14.38384     10.35284     15.36773         0.364002     -0.121234      0.351587
C      5.61067      6.59456     10.35284        -0.290767     -0.652338     -0.019789
C     15.36773      6.59456     10.62556         0.418007     -0.977217      0.037856
C      5.61067     14.38384     10.62556        -0.132951      1.171778     -0.183413
C     15.36773     14.38384     10.35284         0.470562      0.650840     -0.026077
C      5.61067     10.35284      6.59456        -0.374946     -0.099707     -0.735018
C     15.36773     10.62556      6.59456         0.412684      0.117452     -0.747400
C      5.61067     10.62556     14.38384        -0.394148     -0.173835      1.233367
C     15.36773     10.35284     14.38384         0.278819      0.188311      1.475441
C     10.35284      6.59456      5.61067        -0.053158     -0.724676     -0.608445
C     10.62556      6.59456     15.36773        -0.110909     -0.883375      0.349479
C     10.62556     14.38384      5.61067        -0.470575      0.400808     -0.711598
C     10.35284     14.38384     15.36773        -0.156976      0.617436      0.421162
C      6.59456      5.61067     10.35284        -0.512814     -0.336133      0.027562
C      6.59456     15.36773     10.62556        -0.380114      0.454456      0.055781
C     14.38384      5.61067     10.62556         0.445883     -0.372701      0.001327
C     14.38384     15.36773     10.35284         1.121309      0.504623     -0.068922
C     10.40319      3.19606      7.29314        -0.000581      0.664809     -0.334112
C     10.35913      4.25547      6.23373         0.008262     -0.431811      0.288210
C      0.08601      7.29314      7.29314        -0.013899     -0.359189     -0.506460
C      0.13007      6.23373      6.23373        -0.069702      0.861303      0.064895
C      0.08601      3.19606      3.19606        -0.002839      0.680311      0.267560
C      0.13007      4.25547      4.25547         0.029845     -0.268211     -0.542380
C     10.40319      7.29314      3.19606        -0.067727     -1.156648      0.570081
C     10.35913      6.23373      4.25547        -0.037682      0.365583     -0.198049
C      7.29314     10.40319      3.19606        -1.081974     -0.057290      0.188720
C      6.23373     10.35913      4.25547         0.362983      0.084029     -0.535482
C      7.29314      0.08601      7.29314        -0.417513      0.034841     -0.541587
C      6.23373      0.13007      6.23373         0.183001      0.130390      0.130536
C      3.19606      0.08601      3.19606         0.693795      0.025581      0.166857
C      4.25547      0.13007      4.25547        -0.171200     -0.049806     -0.356824
C      3.19606     10.40319      7.29314         0.378685     -0.025342     -0.888574
C      4.25547     10.35913      6.23373        -0.155530     -0.080822      0.098186
C      3.19606      7.29314     10.40319         0.601143     -0.396509      0.002643
C      4.25547      6.23373     10.35913        -0.114065      0.183122      0.000848
C      7.29314      7.29314      0.08601        -0.409866     -0.319984     -0.015378
C      6.23373      6.23373      0.13007         0.185297      0.192164     -0.060637
C      3.19606      3.19606      0.08601         0.288376      0.478553     -0.024457
C      4.25547      4.25547      0.13007        -0.402503     -0.229705     -0.034660
C      7.29314      3.19606     10.40319        -0.278239      0.590328     -0.011602
C      6.23373      4.25547     10.35913         0.005070     -0.112225      0.020539
O     10.43466      3.58206      8.50569        -0.027880      0.097300      0.323890
O     10.54374     17.39634      8.50569         0.063701     -0.132337      0.598364
O     10.54374      3.58206     12.47271         0.027535      0.106577     -0.392300
O     10.43466     17.39634     12.47271         0.089574     -0.044919     -0.378430
O      8.50569     10.43466      3.58206         0.710876     -0.061906      0.013075
O      8.50569     10.54374     17.39634         0.462786      0.056745     -0.074543
O     12.47271     10.54374      3.58206        -0.648493      0.114471      0.204272
O     12.47271     10.43466     17.39634        -0.280882     -0.003846      0.019888
O      3.58206      8.50569     10.43466         0.042302      0.461650     -0.066775
O     17.39634      8.50569     10.54374        -0.058871      0.454611      0.055945
O      3.58206     12.47271     10.54374         0.113661     -0.583058      0.002133
O     17.39634     12.47271     10.43466        -0.169054     -0.738395     -0.058508
O      3.58206     10.43466      8.50569         0.213952     -0.062426      0.786542
O     17.39634     10.54374      8.50569        -0.110956      0.076744      0.578629
O      3.58206     10.54374     12.47271         0.000347     -0.003360     -0.268387
O     17.39634     10.43466     12.47271         0.040841     -0.013001     -0.219514
O     10.43466      8.50569      3.58206        -0.104125      0.572977     -0.114326
O     10.54374      8.50569     17.39634         0.066670      0.501165     -0.091042
O     10.54374     12.47271      3.58206         0.105106     -0.626438      0.134655
O     10.43466     12.47271     17.39634        -0.061822     -0.642456     -0.248451
O      8.50569      3.58206     10.43466         0.396827      0.027589     -0.034733
O      8.50569     17.39634     10.54374         0.630977     -0.154596      0.048531
O     12.47271      3.58206     10.54374        -0.508507      0.126764      0.035792
O     12.47271     17.39634     10.43466        -0.620231     -0.133853      0.038516
O     11.90042     11.90042     19.56718        -0.274118     -0.308679      0.234299
O     19.56718     19.56718     19.56718         0.302854      0.319243      0.299804
O     19.56718     11.90042     11.90042         0.285422     -0.325329     -0.231949
O     11.90042     19.56718     11.90042        -0.316336      0.229533     -0.202349
O      9.45224      1.03696      9.45224        -0.082517      0.082404     -0.070199
O      1.03696      9.45224      9.45224         0.100365     -0.114995     -0.047896
O      1.03696      1.03696      1.03696         0.083855      0.054631      0.098156
O      9.45224      9.45224      1.03696        -0.060017     -0.132118      0.130972
Zr     10.48920      2.52580     10.48920         0.032311     -0.085791      0.076435
Zr     10.48920     18.45260     10.48920        -0.171243      0.260759     -0.346449
Zr     10.48920     10.48920      2.52580         0.118969      0.357399     -0.350284
Zr     10.48920     10.48920     18.45260        -0.082207     -0.204684      0.184063
Zr      2.52580     10.48920     10.48920        -0.253488      0.130272      0.227914
Zr     18.45260     10.48920     10.48920         0.226030     -0.112849      0.005487
Pd      9.39799     14.25186      9.37053        -0.002160      0.026945     -0.037909
Pd      8.61951     13.69977     12.97919        -0.027408     -0.041238      0.029375
Pd     12.03324     14.42224      8.73580         0.012616     -0.022871      0.004226
Pd     12.78068     12.81975     10.61224        -0.048410      0.013323      0.050929
Pd     12.14557      7.11667     12.61864        -0.001650      0.005195      0.001512
Pd     11.21872     14.82241     11.51181        -0.010264      0.028500     -0.025370
Pd     10.09268     12.48109     11.13266        -0.035105      0.048400     -0.022288
Pd     13.47793     12.13067      7.97913         0.014723      0.005031     -0.004846
Pd     11.47801     11.55550      6.11412         0.005118      0.008069      0.006750
Pd      7.85580      8.56814      7.54495         0.019963     -0.046635     -0.007002
Pd      8.73981     11.72690      6.89100        -0.001635      0.018914     -0.005966
Pd     10.31317      9.46774      8.14243        -0.007991     -0.002565      0.012477
Pd      8.51368     14.43144      6.85059        -0.010903      0.010439     -0.020964
Pd     12.36613      9.02980      6.58013        -0.001148      0.009988      0.000121
Pd      9.74461      9.60721      5.55270        -0.002636      0.005492      0.000162
Pd      6.86227      9.45533     12.18517        -0.030966     -0.028211     -0.024072
Pd     12.20834      6.68693      7.86949         0.002714      0.003846      0.014122
Pd      5.95352     10.46411      9.72479        -0.000652     -0.004373     -0.002945
Pd      7.57881      7.13399     13.25728        -0.010967      0.026568      0.060221
Ir     11.81191      9.70495     13.05713        -0.041819      0.005599      0.015370
Ir     13.58527      8.98650     11.44192        -0.019407      0.023840     -0.002308
Ir      9.43182      8.82464     13.87817        -0.000641     -0.034695      0.039477
Ir     10.56843     10.93204     14.85632        -0.042727      0.024422      0.015460
Ir      7.28839     12.03246     11.36885         0.014080     -0.034169     -0.007519
Ir     14.70092     10.82722     10.08224        -0.029574      0.022531      0.038766
Ir     12.19794     10.47984      9.66579         0.009644      0.038779     -0.018059
Ir      8.76437     11.02867     13.02239         0.104638      0.057652      0.008053
Ir     10.14567      9.85186     11.23233        -0.018196      0.031818     -0.091721
Ir     13.78277     11.36369     12.39384        -0.030126     -0.016396      0.037903
Ir     11.68317     12.30385     13.10903        -0.113212      0.015685     -0.027709
Ir      8.53634     11.07288      9.39055        -0.037120     -0.000727     -0.007576
Ir     11.59687      7.97389     10.06634         0.005055      0.018719      0.041153
Ir      7.24001     12.99595      8.69910         0.017317      0.020218     -0.002833
Ir      9.51745      7.00385      9.09995        -0.009629     -0.002349      0.050345
Ir      8.07027      8.74266     10.10333         0.005726      0.052151     -0.015537
Ir     10.76284     12.09411      8.54480        -0.008336      0.012281     -0.025841
Ir      9.56979      7.43660     11.65582        -0.015747      0.034919      0.055877
Ir     13.69483      8.70071      8.79710         0.002314      0.017994      0.027648
