35
# total energy = -230.85149977 eVC      4.82877      9.03464      7.49840        -0.006246      0.014695     -0.000000
C      7.18353      2.97766      7.49840         0.006246     -0.014695      0.000000
C      2.97766      4.82877      7.49840        -0.014695     -0.006246      0.000000
C      9.03464      7.18353      7.49840         0.014695      0.006246     -0.000000
C      7.18353      9.03464      7.49840         0.006246      0.014695      0.000000
C      4.82877      2.97766      7.49840        -0.006246     -0.014695     -0.000000
C      9.03464      4.82877      7.49840         0.014695     -0.006246     -0.000000
C      2.97766      7.18353      7.49840        -0.014695      0.006246      0.000000
C      8.46516      8.46516      7.49840        -0.009855     -0.009855      0.000000
C      3.54714      3.54714      7.49840         0.009855      0.009855      0.000000
C      3.54714      8.46516      7.49840         0.009855     -0.009855      0.000000
C      8.46516      3.54714      7.49840        -0.009855      0.009855      0.000000
C     11.28712      0.72518      7.49840         0.002785     -0.002785      0.000000
C      0.72518     11.28712      7.49840        -0.002785      0.002785      0.000000
C     11.28712     11.28712      7.49840         0.002785      0.002785      0.000000
C      0.72518      0.72518      7.49840        -0.002785     -0.002785      0.000000
N      6.00615      8.35204      7.49840        -0.000000     -0.020799      0.000000
N      6.00615      3.66026      7.49840         0.000000      0.020799      0.000000
N      3.66026      6.00615      7.49840         0.020799      0.000000      0.000000
N      8.35204      6.00615      7.49840        -0.020799      0.000000      0.000000
O      4.70933     10.37450      7.49840         0.012275     -0.018111      0.000000
O      7.30297      1.63780      7.49840        -0.012275      0.018111     -0.000000
O      1.63780      4.70933      7.49840         0.018111      0.012275     -0.000000
O     10.37450      7.30297      7.49840        -0.018111     -0.012275      0.000000
O      7.30297     10.37450      7.49840        -0.012275     -0.018111     -0.000000
O      4.70933      1.63780      7.49840         0.012275      0.018111      0.000000
O     10.37450      4.70933      7.49840        -0.018111      0.012275     -0.000000
O      1.63780      7.30297      7.49840         0.018111     -0.012275      0.000000
Au      9.90749      2.10481      7.49840         0.004087     -0.004087      0.000000
Au      2.10481      9.90749      7.49840        -0.004087      0.004087      0.000000
Au      9.90749      9.90749      7.49840         0.004087      0.004087     -0.000000
Au      2.10481      2.10481      7.49840        -0.004087     -0.004087      0.000000
Au      6.00615      6.00615      7.49840         0.000000      0.000000      0.000000
Au      6.00615     -0.00000      7.49840         0.000000      0.000000      0.000000
Au      0.00000      6.00615      7.49840         0.000000      0.000000      0.000000
