21
# total energy = -132.41427271 eVH      5.95217      5.93993      7.50000         0.044421      0.009219      0.000000
H      2.20193      8.14430      7.50000        -0.029412      0.032476     -0.000000
H      2.16803      3.79431      7.50000        -0.014138     -0.042939     -0.000000
H      4.36998      0.01957      7.50000        -0.044421     -0.009219     -0.000000
H      8.12023     -2.18480      7.50000         0.029412     -0.032476      0.000000
H      8.15412      2.16519      7.50000         0.014138      0.042939      0.000000
C      8.26407     -0.01055      7.50000         0.002864      0.032617      0.000000
C      6.19921      1.20260      7.50000        -0.025359     -0.011578      0.000000
C      6.18112     -1.19220      7.50000         0.018147     -0.013552      0.000000
C      2.05809      5.97005      7.50000        -0.002864     -0.032617      0.000000
C      4.12294      4.75690      7.50000         0.025359      0.011578      0.000000
C      4.14104      7.15170      7.50000        -0.018147      0.013552      0.000000
C      7.58355     -1.23592      7.50000        -0.045018      0.042351     -0.000000
C      7.60071      1.22604      7.50000        -0.014007     -0.065498     -0.000000
C      5.46001      0.00994      7.50000         0.064002      0.014907      0.000000
C      2.73861      7.19542      7.50000         0.045018     -0.042351      0.000000
C      2.72145      4.73346      7.50000         0.014007      0.065498      0.000000
C      4.86214      5.94956      7.50000        -0.064002     -0.014907     -0.000000
Pd      5.16108     -2.97975      7.50000         0.000000      0.000000      0.000000
Pd     -0.00000      5.95950      7.50000         0.000000      0.000000      0.000000
Pd      5.16108      2.97975      7.50000         0.000000      0.000000      0.000000
