152
# total energy = -1061.36648431 eVH     10.35389      5.87395      7.64558        -0.151168      0.134111      0.997379
H     10.62451     15.10445      7.64558         0.232315     -0.073259      0.835546
H     10.62451      5.87395     13.33282        -0.148861      0.084909     -0.508593
H     10.35389     15.10445     13.33282         0.066842     -0.227983     -0.430626
H      7.64558     10.35389      5.87395         0.851494      0.099933      0.206176
H      7.64558     10.62451     15.10445         0.190485     -0.001848     -0.065670
H     13.33282     10.62451      5.87395        -0.637591     -0.024901      0.173193
H     13.33282     10.35389     15.10445        -0.333513     -0.086011     -0.051471
H      5.87395      7.64558     10.35389         0.137755      0.363594     -0.036793
H     15.10445      7.64558     10.62451        -0.132660      0.605627      0.264099
H      5.87395     13.33282     10.62451         0.132048     -0.558876      0.007715
H     15.10445     13.33282     10.35389        -0.239362     -0.450489      0.107933
H      5.87395     10.35389      7.64558         0.200763      0.197312      0.377903
H     15.10445     10.62451      7.64558        -0.175717     -0.168026      0.488580
H      5.87395     10.62451     13.33282         0.033582      0.133067     -0.725994
H     15.10445     10.35389     13.33282         0.095414     -0.292884     -0.736057
H     10.35389      7.64558      5.87395        -0.090333      0.435447      0.252786
H     10.62451      7.64558     15.10445         0.416971      0.708911     -0.104599
H     10.62451     13.33282      5.87395         0.235791     -0.583723      0.116950
H     10.35389     13.33282     15.10445         0.168635     -0.670329     -0.077047
H      7.64558      5.87395     10.35389         0.433487      0.155817     -0.059187
H      7.64558     15.10445     10.62451         0.450239     -0.168472      0.340697
H     13.33282      5.87395     10.62451        -0.359816      0.147656     -0.048238
H     13.33282     15.10445     10.35389        -0.546652     -0.246113      0.153521
H     12.45634     12.45634     19.01126         0.239542      0.264572     -0.240992
H     19.01126     19.01126     19.01126        -0.256376     -0.264886     -0.228040
H     19.01126     12.45634     12.45634        -0.232105      0.268385      0.242296
H     12.45634     19.01126     12.45634         0.286778     -0.211311      0.246416
C     10.35284      5.61067      6.59456         0.310512     -0.295314     -0.906992
C     10.62556     15.36773      6.59456        -0.161606      0.677123     -0.373589
C     10.62556      5.61067     14.38384         0.267823     -0.343798      0.516867
C     10.35284     15.36773     14.38384        -0.127659      0.270892      0.377270
C      6.59456     10.35284      5.61067        -0.793996     -0.149617     -0.215460
C      6.59456     10.62556     15.36773        -0.553948      0.062553      0.348173
C     14.38384     10.62556      5.61067         0.954756     -0.009177     -0.538827
C     14.38384     10.35284     15.36773         0.276949     -0.089446      0.374170
C      5.61067      6.59456     10.35284        -0.375683     -0.464749      0.038968
C     15.36773      6.59456     10.62556         0.268565     -0.702444     -0.153383
C      5.61067     14.38384     10.62556        -0.183246      0.599841     -0.245467
C     15.36773     14.38384     10.35284         0.380032      0.824904     -0.122189
C      5.61067     10.35284      6.59456        -0.258956     -0.130581     -0.206093
C     15.36773     10.62556      6.59456         0.211899      0.165014     -0.413420
C      5.61067     10.62556     14.38384        -0.364723     -0.021235      1.230519
C     15.36773     10.35284     14.38384         0.272122     -0.031126      0.998843
C     10.35284      6.59456      5.61067         0.041501     -0.317315     -0.453840
C     10.62556      6.59456     15.36773        -0.044081     -0.880074      0.267788
C     10.62556     14.38384      5.61067        -0.395682      0.005995     -0.801299
C     10.35284     14.38384     15.36773        -0.230077      0.904220      0.236906
C      6.59456      5.61067     10.35284        -0.404566     -0.290560      0.175351
C      6.59456     15.36773     10.62556        -0.527799      0.530328      0.027647
C     14.38384      5.61067     10.62556         0.404815     -0.314741      0.072118
C     14.38384     15.36773     10.35284         0.827760      0.286887     -0.066227
C     10.40319      3.19606      7.29314        -0.001301      0.627750     -0.323464
C     10.35913      4.25547      6.23373         0.001175     -0.477162      0.415680
C      0.08601      7.29314      7.29314        -0.022977     -0.820731     -0.467744
C      0.13007      6.23373      6.23373        -0.153061      0.855513      0.132186
C      0.08601      3.19606      3.19606        -0.012242      0.371886      0.379114
C      0.13007      4.25547      4.25547         0.070371     -0.163335     -0.642930
C     10.40319      7.29314      3.19606        -0.046873     -1.095437      0.875074
C     10.35913      6.23373      4.25547         0.013661      0.335568     -0.177075
C      7.29314     10.40319      3.19606        -1.074405     -0.070787      0.361839
C      6.23373     10.35913      4.25547         0.282668      0.031164     -0.620182
C      7.29314      0.08601      7.29314        -0.955547     -0.002540     -0.402919
C      6.23373      0.13007      6.23373         0.205478      0.020207      0.115446
C      3.19606      0.08601      3.19606         0.334980     -0.004181      0.374878
C      4.25547      0.13007      4.25547        -0.275612     -0.046219     -0.160387
C      3.19606     10.40319      7.29314         0.489408     -0.047540     -1.078297
C      4.25547     10.35913      6.23373        -0.301575     -0.049821      0.131554
C      3.19606      7.29314     10.40319         0.849503     -0.507690      0.011651
C      4.25547      6.23373     10.35913        -0.127826      0.162667     -0.001193
C      7.29314      7.29314      0.08601        -0.410890     -0.270618     -0.005999
C      6.23373      6.23373      0.13007         0.243513      0.069815     -0.141099
C      3.19606      3.19606      0.08601         0.331194      0.694010     -0.009371
C      4.25547      4.25547      0.13007        -0.366768     -0.225178      0.054340
C      7.29314      3.19606     10.40319        -0.214733      0.559048      0.020291
C      6.23373      4.25547     10.35913         0.054580     -0.260391      0.009870
O     10.43466      3.58206      8.50569        -0.018590      0.116374      0.342815
O     10.54374     17.39634      8.50569         0.061813      0.036143      0.316569
O     10.54374      3.58206     12.47271         0.042550      0.198893     -0.570232
O     10.43466     17.39634     12.47271         0.032190     -0.008264     -0.464634
O      8.50569     10.43466      3.58206         0.728539     -0.073938      0.068762
O      8.50569     10.54374     17.39634         0.920120      0.031534     -0.161248
O     12.47271     10.54374      3.58206        -0.350658      0.045469      0.066361
O     12.47271     10.43466     17.39634        -0.344460     -0.024261      0.065322
O      3.58206      8.50569     10.43466        -0.030035      0.392922     -0.083125
O     17.39634      8.50569     10.54374        -0.118501      0.428898      0.032920
O      3.58206     12.47271     10.54374         0.129789     -0.706434     -0.010943
O     17.39634     12.47271     10.43466        -0.247431     -0.666039     -0.013315
O      3.58206     10.43466      8.50569         0.135453     -0.043391      0.831487
O     17.39634     10.54374      8.50569         0.040799      0.044683      0.282581
O      3.58206     10.54374     12.47271         0.070188      0.019340     -0.444510
O     17.39634     10.43466     12.47271        -0.012274      0.016081     -0.313212
O     10.43466      8.50569      3.58206        -0.068234      0.570450     -0.088041
O     10.54374      8.50569     17.39634         0.023607      0.849023     -0.182480
O     10.54374     12.47271      3.58206         0.058359     -0.367378      0.089473
O     10.43466     12.47271     17.39634        -0.062477     -0.673459     -0.211819
O      8.50569      3.58206     10.43466         0.345518      0.065754     -0.052659
O      8.50569     17.39634     10.54374         0.504206     -0.132430      0.015872
O     12.47271      3.58206     10.54374        -0.398431      0.093850      0.025128
O     12.47271     17.39634     10.43466        -0.686125     -0.097205      0.063097
O     11.90042     11.90042     19.56718        -0.249054     -0.278620      0.226634
O     19.56718     19.56718     19.56718         0.288485      0.301870      0.247987
O     19.56718     11.90042     11.90042         0.235288     -0.298641     -0.288634
O     11.90042     19.56718     11.90042        -0.285048      0.179124     -0.256396
O      9.45224      1.03696      9.45224        -0.121363      0.116078     -0.082100
O      1.03696      9.45224      9.45224         0.150622     -0.133769     -0.157071
O      1.03696      1.03696      1.03696         0.139932      0.196859     -0.011901
O      9.45224      9.45224      1.03696        -0.207487     -0.169204      0.047776
Zr     10.48920      2.52580     10.48920         0.009669     -0.245345      0.188728
Zr     10.48920     18.45260     10.48920        -0.240937      0.254646     -0.258006
Zr     10.48920     10.48920      2.52580         0.270449      0.457240     -0.214933
Zr     10.48920     10.48920     18.45260         0.039964     -0.056689      0.491916
Zr      2.52580     10.48920     10.48920        -0.543797      0.061708      0.362985
Zr     18.45260     10.48920     10.48920         0.265542     -0.155995      0.031339
Pd      9.08898     14.47888      9.20853        -0.015751      0.057326     -0.024080
Pd      8.36179     13.25312     13.74384        -0.000858     -0.025420      0.030849
Pd     11.97421     14.23851      8.77826         0.055503      0.004100     -0.029126
Pd     12.28402     12.75572     10.90885         0.030697      0.030729      0.023499
Pd     11.86348      7.10953     12.07905        -0.015775     -0.068665     -0.007065
Pd     10.98168     15.29238     11.03651         0.080113      0.041506     -0.013479
Pd      9.62248     13.04808     11.41054        -0.053270      0.021168      0.030691
Pd     13.94898     12.54120      8.22381         0.025660     -0.047194     -0.043808
Pd     11.68162     11.72455      6.79794         0.019343      0.030766      0.011064
Pd      7.54208      8.50034      7.27075        -0.021609     -0.016254      0.002528
Pd      8.74937     11.96186      6.88131         0.024072     -0.013164      0.022113
Pd      9.82482      9.81136      8.05961         0.008696      0.044748     -0.043724
Pd      8.49337     14.61431      6.55624         0.012964      0.002708     -0.034964
Pd     12.16134      9.02485      6.95431         0.020415     -0.030966     -0.063901
Pd     10.06545      9.96727      5.43447        -0.040838     -0.033668      0.013034
Pd      6.93100      9.15697     12.23926         0.010916      0.039901     -0.049409
Pd     12.42149      6.50567      7.82652        -0.020435      0.002877     -0.016038
Pd      5.62485     10.56572     10.03370        -0.020292      0.022183      0.029475
Pd      7.66674      6.64573     12.92253         0.008797      0.041102     -0.084260
Ir     11.30132      9.57749     12.96705        -0.018870      0.072546     -0.016262
Ir     13.10542      9.25066     11.23479        -0.012760     -0.000550     -0.066088
Ir      9.16517      8.48411     13.89208         0.039119      0.016092     -0.102811
Ir     10.24919     10.46521     15.16107         0.003561     -0.031956     -0.061674
Ir      7.08119     11.83167     11.80242         0.052799     -0.019550      0.038458
Ir     14.50042     11.12534     10.43429        -0.024344      0.014089     -0.021667
Ir     12.35944     10.59351      9.15411         0.014436     -0.043298      0.043972
Ir      8.92083     10.81484     12.94088         0.025655     -0.012484     -0.008677
Ir     10.06323     10.25717     10.69867        -0.056409      0.018484      0.016992
Ir     13.31353     11.27578     12.69520        -0.015032     -0.013861     -0.017393
Ir     11.10144     12.07407     13.40058        -0.023153     -0.033088     -0.041071
Ir      8.00403     11.64916      9.49947         0.019887      0.030028     -0.004156
Ir     11.35425      8.13463      9.60280         0.022275      0.020321      0.005064
Ir      6.94316     13.35013      8.19750        -0.040886      0.049944      0.067726
Ir      9.16655      7.24098      8.90915        -0.037832     -0.012752      0.027186
Ir      7.82256      9.14101      9.79168        -0.007625      0.000448     -0.013238
Ir     10.42102     12.25897      8.98874        -0.090510     -0.037231      0.009790
Ir      9.38202      7.86780     11.38970        -0.013283      0.021815     -0.008197
Ir     13.81540      8.44562      8.94584        -0.028982     -0.032461     -0.050826
