152
# total energy = -1005.53893929 eVH     10.35389      5.87395      7.64558         0.159389      0.101743      0.570819
H     10.62451     15.10445      7.64558        -0.119385     -0.147023      0.499399
H     10.62451      5.87395     13.33282         0.579503      0.084137     -0.836513
H     10.35389     15.10445     13.33282         0.024967     -0.157482     -0.402936
H      7.64558     10.35389      5.87395         0.354631      0.038642      0.165022
H      7.64558     10.62451     15.10445         0.887790      0.531853      0.002778
H     13.33282     10.62451      5.87395        -0.438645      0.350301      0.110994
H     13.33282     10.35389     15.10445        -0.850715     -0.071970      0.007842
H      5.87395      7.64558     10.35389         0.317540      1.206098      0.033048
H     15.10445      7.64558     10.62451        -0.107454      0.487987      0.294574
H      5.87395     13.33282     10.62451         0.184891     -0.616181      0.044210
H     15.10445     13.33282     10.35389        -0.080081     -0.948593     -0.200898
H      5.87395     10.35389      7.64558         0.206683      0.052240      0.441390
H     15.10445     10.62451      7.64558        -0.141054      0.515996      0.774313
H      5.87395     10.62451     13.33282         0.057681      0.422495     -1.024795
H     15.10445     10.35389     13.33282        -0.075482     -0.032432     -0.644492
H     10.35389      7.64558      5.87395         0.328265      1.167703      0.063439
H     10.62451      7.64558     15.10445         0.686970      0.680795     -0.216142
H     10.62451     13.33282      5.87395        -0.398967     -0.811166      0.269509
H     10.35389     13.33282     15.10445        -0.101314     -0.470119     -0.288825
H      7.64558      5.87395     10.35389         0.840032      0.057013     -0.212547
H      7.64558     15.10445     10.62451         0.803971     -0.179050      0.031486
H     13.33282      5.87395     10.62451        -0.717344      0.167960      0.515112
H     13.33282     15.10445     10.35389        -0.377355     -0.119088     -0.092478
H     12.45634     12.45634     19.01126         0.246002      0.271762     -0.232865
H     19.01126     19.01126     19.01126        -0.274596     -0.249470     -0.239839
H     19.01126     12.45634     12.45634        -0.277688      0.263095      0.220050
H     12.45634     19.01126     12.45634         0.236197     -0.262797      0.273239
C     10.35284      5.61067      6.59456        -0.320223     -0.744720     -0.102040
C     10.62556     15.36773      6.59456         0.061786      0.334670     -0.263460
C     10.62556      5.61067     14.38384        -0.148758     -0.512951      0.263291
C     10.35284     15.36773     14.38384         0.017520      0.192454      0.354396
C      6.59456     10.35284      5.61067        -0.394068      0.012160     -0.250881
C      6.59456     10.62556     15.36773        -0.643384      0.082948      0.644241
C     14.38384     10.62556      5.61067        -0.256418     -0.463987     -0.676839
C     14.38384     10.35284     15.36773         1.046976     -0.088018      0.177922
C      5.61067      6.59456     10.35284        -0.737037     -0.253127     -0.346213
C     15.36773      6.59456     10.62556         0.535654      0.014420     -0.350199
C      5.61067     14.38384     10.62556        -0.229274      0.674741     -0.016546
C     15.36773     14.38384     10.35284         0.276911      0.954448      0.026935
C      5.61067     10.35284      6.59456        -0.297842      0.003783     -0.768839
C     15.36773     10.62556      6.59456         0.494576     -0.263510      0.204131
C      5.61067     10.62556     14.38384        -0.682021     -0.019897      0.500208
C     15.36773     10.35284     14.38384         0.428318     -0.034483      1.002777
C     10.35284      6.59456      5.61067        -0.139777     -0.765884     -0.567247
C     10.62556      6.59456     15.36773        -0.072701     -0.434848      0.584898
C     10.62556     14.38384      5.61067         0.198908      1.154482     -0.353369
C     10.35284     14.38384     15.36773        -0.003251      0.833319      0.387270
C      6.59456      5.61067     10.35284         0.118019     -1.064139      0.260577
C      6.59456     15.36773     10.62556        -0.977727      0.229309      0.079718
C     14.38384      5.61067     10.62556         0.306889     -0.558126     -0.365904
C     14.38384     15.36773     10.35284         0.142529      0.369291     -0.078349
C     10.40319      3.19606      7.29314         0.004418      0.851328     -0.450468
C     10.35913      4.25547      6.23373         0.064479     -0.549386      0.104762
C      0.08601      7.29314      7.29314        -0.041862     -0.808296     -0.239347
C      0.13007      6.23373      6.23373        -0.044487      0.200092      0.461038
C      0.08601      3.19606      3.19606         0.019692      1.414579      0.266646
C      0.13007      4.25547      4.25547         0.016268     -0.624743     -0.260972
C     10.40319      7.29314      3.19606         0.002674     -0.334101      0.267026
C     10.35913      6.23373      4.25547         0.030191      0.024293     -0.732463
C      7.29314     10.40319      3.19606        -0.259525      0.017890      0.537999
C      6.23373     10.35913      4.25547         0.142164      0.043667     -0.059595
C      7.29314      0.08601      7.29314        -0.821200     -0.076202     -0.308289
C      6.23373      0.13007      6.23373         0.807923     -0.170556      0.417307
C      3.19606      0.08601      3.19606         0.927859     -0.024544      0.573385
C      4.25547      0.13007      4.25547        -0.541197     -0.090226     -0.642842
C      3.19606     10.40319      7.29314         0.544190     -0.009429     -0.759082
C      4.25547     10.35913      6.23373        -0.266777      0.065530      0.215551
C      3.19606      7.29314     10.40319         0.294791     -1.303120      0.027202
C      4.25547      6.23373     10.35913        -1.051492      0.022555      0.116200
C      7.29314      7.29314      0.08601        -0.438271     -0.424420     -0.013946
C      6.23373      6.23373      0.13007         0.540579      0.235785      0.015037
C      3.19606      3.19606      0.08601         0.449908      0.353004     -0.034024
C      4.25547      4.25547      0.13007        -0.131705     -0.580551     -0.046214
C      7.29314      3.19606     10.40319        -0.385907      0.445010      0.056282
C      6.23373      4.25547     10.35913         0.261945     -0.740354      0.137946
O     10.43466      3.58206      8.50569        -0.014727      0.054533      0.448959
O     10.54374     17.39634      8.50569         0.063581     -0.081721      0.350882
O     10.54374      3.58206     12.47271         0.026006     -0.120515     -0.144239
O     10.43466     17.39634     12.47271        -0.028318     -0.167396     -0.518929
O      8.50569     10.43466      3.58206         0.276428     -0.021931      0.011676
O      8.50569     10.54374     17.39634         0.778060     -0.041635     -0.176069
O     12.47271     10.54374      3.58206        -0.805903      0.097841      0.086255
O     12.47271     10.43466     17.39634        -0.478100      0.034010     -0.079197
O      3.58206      8.50569     10.43466         0.157387      1.081327     -0.033590
O     17.39634      8.50569     10.54374        -0.158522      0.586214      0.068247
O      3.58206     12.47271     10.54374         0.103671     -0.437916      0.037702
O     17.39634     12.47271     10.43466        -0.145650     -0.553663     -0.030830
O      3.58206     10.43466      8.50569         0.068902     -0.090023      0.608518
O     17.39634     10.54374      8.50569        -0.036951      0.089295      0.427461
O      3.58206     10.54374     12.47271         0.012856      0.035234     -0.490432
O     17.39634     10.43466     12.47271        -0.231100     -0.045783     -0.648193
O     10.43466      8.50569      3.58206        -0.038770      0.451725      0.139879
O     10.54374      8.50569     17.39634        -0.056857      0.697995     -0.215849
O     10.54374     12.47271      3.58206         0.036124     -0.999613      0.108316
O     10.43466     12.47271     17.39634         0.058632     -0.801222     -0.212898
O      8.50569      3.58206     10.43466         0.575109      0.153085     -0.054219
O      8.50569     17.39634     10.54374         0.528631     -0.180272      0.000299
O     12.47271      3.58206     10.54374        -0.603810      0.193757      0.003457
O     12.47271     17.39634     10.43466        -0.251089      0.070858     -0.044269
O     11.90042     11.90042     19.56718        -0.263021     -0.308291      0.229848
O     19.56718     19.56718     19.56718         0.325076      0.294317      0.250006
O     19.56718     11.90042     11.90042         0.316504     -0.261165     -0.235877
O     11.90042     19.56718     11.90042        -0.238525      0.301567     -0.329255
O      9.45224      1.03696      9.45224         0.002298      0.069155     -0.129535
O      1.03696      9.45224      9.45224         0.085602     -0.073105     -0.167116
O      1.03696      1.03696      1.03696         0.111929      0.167489      0.028307
O      9.45224      9.45224      1.03696        -0.094194     -0.112594      0.013013
Zr     10.48920      2.52580     10.48920        -0.094563     -0.219573     -0.019106
Zr     10.48920     18.45260     10.48920        -0.098836      0.185646      0.177901
Zr     10.48920     10.48920      2.52580        -0.104150     -0.439992     -0.207923
Zr     10.48920     10.48920     18.45260        -0.158767      0.019938      0.428048
Zr      2.52580     10.48920     10.48920        -0.342051      0.285052      0.293413
Zr     18.45260     10.48920     10.48920         0.162772      0.013745     -0.109460
Pd     13.62345      8.95497      9.12804         0.002482     -0.004541      0.016956
Pd      5.70606      9.72928      9.99344        -0.004382      0.020895      0.021690
Pd      6.84699     11.42571     11.71171        -0.020610      0.069550     -0.005902
Pd     12.18431     13.11734      7.33726         0.005083     -0.008499     -0.002033
Pd     12.08415      7.88250      7.18619        -0.011180     -0.004833      0.024826
Pd      8.29193      7.05637      6.55783         0.000656     -0.002305      0.002907
Pd     10.87854     11.29053      5.58026         0.005725     -0.006239     -0.002362
Pd     14.63168      8.53300      6.69450        -0.007142     -0.000774      0.006819
Pd      9.63963     11.80479      8.00410         0.009313     -0.000020     -0.003448
Pd      6.71049      6.78185     12.29840         0.023758      0.001159     -0.008734
Pd      6.38619      7.57270      8.27496        -0.001591      0.013369     -0.002820
Pd      6.97023      8.83533     13.91057        -0.033828     -0.050449      0.051529
Pd     11.63366      6.54827      9.48676        -0.023876     -0.009078      0.034683
Pd      9.74285      9.29470      6.89899        -0.007715     -0.001490      0.002647
Pd      9.02588     13.96817      9.41499        -0.004201     -0.002230     -0.012000
Pd      9.99407      7.09159     11.53869        -0.055156      0.036567      0.038003
Pd     10.52664      8.96758      9.55084        -0.003745      0.000606      0.010762
Pd      9.35706     11.27441     10.60692        -0.011112      0.025206     -0.003604
Pd      8.89031      6.99373      9.12378        -0.008634      0.011329      0.007706
Pd      8.76734      6.89548     13.89038        -0.031235     -0.050951      0.056191
Pd      8.02822      8.94520     11.43002        -0.038228      0.058703      0.044155
Pd     11.95387     10.52300      7.83668         0.003226     -0.011165     -0.000383
Pd      7.13946     12.05697      9.14508         0.000402     -0.004182     -0.021235
Pd      8.02576      9.58971      8.80820         0.000459      0.001597      0.017862
Pd     14.17040      6.49972      8.44794        -0.019959     -0.006729      0.006162
Pd     12.54024      8.25350     11.46596        -0.016110      0.000363      0.014125
Pd      8.81748     11.35205     13.42959        -0.013736      0.016252     -0.007731
Pd     13.89651     11.92950      9.03996         0.004898      0.003016     -0.001048
Pd     12.86635     10.57085     13.09019         0.006268      0.004840      0.001536
Pd     14.71923     10.31353     11.13650         0.006384      0.013256      0.000207
Pd     12.05107     10.73556     10.59159         0.003087      0.003703     -0.002723
Pd     11.45062     13.15529      9.86795        -0.000960     -0.001226     -0.002897
Pd     13.56565     12.81571     11.67247         0.003104      0.002197     -0.005493
Pd     11.03614     12.53526     12.44437         0.002764     -0.002516      0.001758
Pd     11.09323     11.35638     14.87997        -0.012410     -0.011953     -0.002280
Pd     10.47030      9.51669     12.55371        -0.003040      0.033328     -0.018923
Pd      9.43742      9.29916     14.98511        -0.014027     -0.015648     -0.044668
Pd      8.63120     13.53367     11.99440         0.014905      0.027928      0.002048
