152
# total energy = -1060.36475769 eVH     10.35389      5.87395      7.64558        -0.218604      0.132987      1.004437
H     10.62451     15.10445      7.64558         0.230305     -0.086890      0.809189
H     10.62451      5.87395     13.33282        -0.304948      0.078349     -0.773386
H     10.35389     15.10445     13.33282         0.148937     -0.275498     -0.774495
H      7.64558     10.35389      5.87395         0.881786     -0.245312      0.204297
H      7.64558     10.62451     15.10445         0.260092      0.003221     -0.067713
H     13.33282     10.62451      5.87395        -0.852960      0.139833      0.184987
H     13.33282     10.35389     15.10445        -0.290312     -0.061453     -0.047307
H      5.87395      7.64558     10.35389         0.095703      0.427189      0.004817
H     15.10445      7.64558     10.62451        -0.087396      0.498236      0.078549
H      5.87395     13.33282     10.62451         0.021788     -0.941478      0.123064
H     15.10445     13.33282     10.35389        -0.167655     -0.376748      0.023830
H      5.87395     10.35389      7.64558         0.312915      0.052987      0.371240
H     15.10445     10.62451      7.64558        -0.122450     -0.137485      0.628009
H      5.87395     10.62451     13.33282        -0.043086      0.427877     -0.670536
H     15.10445     10.35389     13.33282         0.165117     -0.466899     -0.915804
H     10.35389      7.64558      5.87395         0.016594      0.495702      0.344263
H     10.62451      7.64558     15.10445         0.282553      0.752001     -0.062554
H     10.62451     13.33282      5.87395         0.069168     -0.571309      0.221179
H     10.35389     13.33282     15.10445         0.085208     -0.334633     -0.134344
H      7.64558      5.87395     10.35389         0.386184      0.125606      0.064001
H      7.64558     15.10445     10.62451         0.383484     -0.126193      0.216069
H     13.33282      5.87395     10.62451        -0.312342      0.133978     -0.006995
H     13.33282     15.10445     10.35389        -0.646235     -0.171954      0.189536
H     12.45634     12.45634     19.01126         0.261974      0.271823     -0.221664
H     19.01126     19.01126     19.01126        -0.252768     -0.266039     -0.238438
H     19.01126     12.45634     12.45634        -0.246412      0.270823      0.237880
H     12.45634     19.01126     12.45634         0.293780     -0.229575      0.235939
C     10.35284      5.61067      6.59456         0.372287     -0.370549     -1.277857
C     10.62556     15.36773      6.59456        -0.243834      0.653338     -0.682817
C     10.62556      5.61067     14.38384         0.366849     -0.265803      0.788843
C     10.35284     15.36773     14.38384        -0.188363      0.335815      0.950670
C      6.59456     10.35284      5.61067        -1.306583      0.033841     -0.200652
C      6.59456     10.62556     15.36773        -0.602098      0.063628      0.341076
C     14.38384     10.62556      5.61067         1.370507     -0.173678     -0.619589
C     14.38384     10.35284     15.36773         0.337266     -0.128607      0.387005
C      5.61067      6.59456     10.35284        -0.257770     -0.631917     -0.024631
C     15.36773      6.59456     10.62556         0.393518     -0.836708     -0.053166
C      5.61067     14.38384     10.62556        -0.155064      1.069640     -0.222269
C     15.36773     14.38384     10.35284         0.452068      0.753114     -0.055509
C      5.61067     10.35284      6.59456        -0.345023     -0.119199     -0.690836
C     15.36773     10.62556      6.59456         0.336722      0.118663     -0.577205
C      5.61067     10.62556     14.38384        -0.318930     -0.156630      1.228137
C     15.36773     10.35284     14.38384         0.181202      0.191826      1.291811
C     10.35284      6.59456      5.61067        -0.062308     -0.700424     -0.447699
C     10.62556      6.59456     15.36773        -0.101732     -0.950155      0.379006
C     10.62556     14.38384      5.61067        -0.502433      0.432463     -0.747961
C     10.35284     14.38384     15.36773        -0.165090      0.634110      0.491787
C      6.59456      5.61067     10.35284        -0.549599     -0.322301      0.012518
C      6.59456     15.36773     10.62556        -0.287310      0.458757      0.081648
C     14.38384      5.61067     10.62556         0.430456     -0.318423      0.017482
C     14.38384     15.36773     10.35284         1.093122      0.408472     -0.108570
C     10.40319      3.19606      7.29314        -0.011605      0.884122     -0.364283
C     10.35913      4.25547      6.23373         0.022173     -0.341322      0.305378
C      0.08601      7.29314      7.29314        -0.012558     -0.481465     -0.518944
C      0.13007      6.23373      6.23373        -0.058833      0.800208      0.099581
C      0.08601      3.19606      3.19606        -0.006078      0.682756      0.246895
C      0.13007      4.25547      4.25547         0.068830     -0.264530     -0.578656
C     10.40319      7.29314      3.19606        -0.056817     -1.081052      0.721282
C     10.35913      6.23373      4.25547        -0.060096      0.342620     -0.191977
C      7.29314     10.40319      3.19606        -1.054584     -0.053747      0.233635
C      6.23373     10.35913      4.25547         0.376609      0.111870     -0.524091
C      7.29314      0.08601      7.29314        -0.639471      0.017066     -0.361598
C      6.23373      0.13007      6.23373         0.172858      0.098348      0.101199
C      3.19606      0.08601      3.19606         0.658730      0.008900      0.160345
C      4.25547      0.13007      4.25547        -0.191639     -0.079965     -0.327035
C      3.19606     10.40319      7.29314         0.502478     -0.032001     -0.964057
C      4.25547     10.35913      6.23373        -0.130402     -0.033165      0.157704
C      3.19606      7.29314     10.40319         0.680252     -0.383441      0.007244
C      4.25547      6.23373     10.35913        -0.117992      0.175877      0.001120
C      7.29314      7.29314      0.08601        -0.452246     -0.290642     -0.013050
C      6.23373      6.23373      0.13007         0.169919      0.142183     -0.115241
C      3.19606      3.19606      0.08601         0.329912      0.544243     -0.017893
C      4.25547      4.25547      0.13007        -0.448180     -0.263730     -0.026025
C      7.29314      3.19606     10.40319        -0.290758      0.598605     -0.003495
C      6.23373      4.25547     10.35913         0.010722     -0.135446      0.017314
O     10.43466      3.58206      8.50569        -0.029555      0.044027      0.253079
O     10.54374     17.39634      8.50569         0.054160     -0.089341      0.536699
O     10.54374      3.58206     12.47271         0.031003      0.104756     -0.402965
O     10.43466     17.39634     12.47271         0.093142     -0.058793     -0.476431
O      8.50569     10.43466      3.58206         0.702156     -0.069383      0.029527
O      8.50569     10.54374     17.39634         0.686447      0.075449     -0.112814
O     12.47271     10.54374      3.58206        -0.619555      0.132399      0.210977
O     12.47271     10.43466     17.39634        -0.351625     -0.000809      0.035629
O      3.58206      8.50569     10.43466         0.017027      0.425438     -0.070877
O     17.39634      8.50569     10.54374        -0.061119      0.439990      0.056411
O      3.58206     12.47271     10.54374         0.120169     -0.621214     -0.001910
O     17.39634     12.47271     10.43466        -0.207380     -0.740936     -0.028511
O      3.58206     10.43466      8.50569         0.193243     -0.043022      0.794671
O     17.39634     10.54374      8.50569        -0.012286      0.054222      0.358271
O      3.58206     10.54374     12.47271        -0.000170      0.000284     -0.269705
O     17.39634     10.43466     12.47271         0.005566     -0.008436     -0.279258
O     10.43466      8.50569      3.58206        -0.111967      0.524003     -0.092447
O     10.54374      8.50569     17.39634         0.060291      0.564463     -0.072861
O     10.54374     12.47271      3.58206         0.103128     -0.609483      0.119339
O     10.43466     12.47271     17.39634        -0.046730     -0.811063     -0.311150
O      8.50569      3.58206     10.43466         0.398047      0.024505     -0.056703
O      8.50569     17.39634     10.54374         0.641482     -0.152994      0.039930
O     12.47271      3.58206     10.54374        -0.525245      0.116984      0.023508
O     12.47271     17.39634     10.43466        -0.651620     -0.118720      0.050917
O     11.90042     11.90042     19.56718        -0.273270     -0.292615      0.217423
O     19.56718     19.56718     19.56718         0.310533      0.312576      0.290456
O     19.56718     11.90042     11.90042         0.280993     -0.318744     -0.240366
O     11.90042     19.56718     11.90042        -0.315248      0.220924     -0.204136
O      9.45224      1.03696      9.45224        -0.096804      0.122877     -0.057449
O      1.03696      9.45224      9.45224         0.133107     -0.135079     -0.051826
O      1.03696      1.03696      1.03696         0.085011      0.071588      0.085612
O      9.45224      9.45224      1.03696        -0.070088     -0.134823      0.134449
Zr     10.48920      2.52580     10.48920         0.038153     -0.137351      0.155444
Zr     10.48920     18.45260     10.48920        -0.187098      0.257742     -0.356477
Zr     10.48920     10.48920      2.52580         0.117921      0.356376     -0.303862
Zr     10.48920     10.48920     18.45260        -0.074938     -0.246660      0.291541
Zr      2.52580     10.48920     10.48920        -0.273469      0.102680      0.264351
Zr     18.45260     10.48920     10.48920         0.172885     -0.143470     -0.045243
Pd      9.35759     14.42141      9.20819        -0.052324      0.026036     -0.067528
Pd      8.62198     13.64621     13.14802        -0.009751     -0.003488     -0.045910
Pd     12.04634     14.38213      8.80164        -0.004885     -0.012257     -0.049137
Pd     12.58530     12.83916     10.79101         0.107894     -0.100111      0.156649
Pd     12.13036      7.15220     12.66476        -0.028878      0.069888     -0.140270
Pd     11.10864     15.02168     11.38396        -0.044298      0.089320      0.006778
Pd      9.91423     12.71077     10.98596        -0.017061     -0.097086      0.116498
Pd     13.53608     12.23147      8.01811        -0.023505     -0.022902      0.042907
Pd     11.53116     11.62564      6.10789         0.009567     -0.063949      0.055006
Pd      7.91772      8.25091      7.49696        -0.001896     -0.041121     -0.002462
Pd      8.70253     11.75926      6.84448        -0.004503     -0.001289     -0.087807
Pd     10.20150      9.46042      8.19705        -0.072707      0.050086     -0.034836
Pd      8.46270     14.45438      6.69080         0.065876      0.062279      0.035806
Pd     12.35062      9.14128      6.78226        -0.032992      0.120452      0.027791
Pd      9.78233      9.64967      5.57227         0.013848      0.003268      0.049871
Pd      6.88431      9.47047     12.16929         0.045383     -0.044268      0.078659
Pd     12.24850      6.75251      7.98915         0.026444     -0.028124     -0.082193
Pd      5.90256     10.52452      9.73408         0.019818     -0.013566      0.068691
Pd      7.51822      7.16393     13.34633         0.059567     -0.000453     -0.064080
Ir     11.61686      9.71928     13.09208        -0.058684     -0.110060     -0.124479
Ir     13.47824      9.13286     11.52264        -0.098662     -0.066373     -0.012368
Ir      9.33355      8.83717     14.02264        -0.121692     -0.159883     -0.029628
Ir     10.46133     10.82291     15.09263        -0.040901      0.060940      0.170774
Ir      7.30160     12.00337     11.40046        -0.061938      0.035718     -0.004679
Ir     14.58096     11.02167     10.29434        -0.044740      0.023030      0.079648
Ir     12.19084     10.55494      9.56392         0.151710      0.047276      0.013695
Ir      8.91375     11.04189     12.97668        -0.026408      0.128687     -0.052745
Ir     10.10378      9.94980     11.03865         0.008278     -0.005026      0.063122
Ir     13.55275     11.42248     12.65687        -0.015809      0.112783     -0.038028
Ir     11.28382     12.25249     13.12847        -0.083242      0.013409     -0.015929
Ir      8.46016     11.15461      9.32404        -0.101969      0.024174      0.055480
Ir     11.60260      8.02039     10.14158         0.000053     -0.016947      0.028293
Ir      7.21574     13.10749      8.66588        -0.034353     -0.035623     -0.054172
Ir      9.54554      6.95309      9.26026        -0.025533     -0.029857     -0.061622
Ir      8.03344      8.78675     10.01947        -0.028164      0.026994      0.042868
Ir     10.71127     12.13821      8.48775         0.059475      0.032570     -0.034544
Ir      9.52002      7.63011     11.75734        -0.018077      0.139721      0.037687
Ir     13.78702      8.74119      8.96575         0.089260     -0.097307      0.024331
