152
# total energy = -1022.23769181 eVH     10.35389      5.87395      7.64558         0.383199     -0.069287      1.082666
H     10.62451     15.10445      7.64558         0.042084     -0.105869      0.599661
H     10.62451      5.87395     13.33282         0.124004      0.111969     -0.647548
H     10.35389     15.10445     13.33282        -0.272051     -0.059985     -0.554911
H      7.64558     10.35389      5.87395         0.436665     -0.046096      0.166483
H      7.64558     10.62451     15.10445         0.629466     -0.096115     -0.082592
H     13.33282     10.62451      5.87395        -1.031987     -0.429231     -0.127253
H     13.33282     10.35389     15.10445        -0.466167     -0.047481     -0.046238
H      5.87395      7.64558     10.35389         0.055375      1.238177     -0.129904
H     15.10445      7.64558     10.62451        -0.161240      0.387764     -0.072301
H      5.87395     13.33282     10.62451         0.144581     -0.384400     -0.063331
H     15.10445     13.33282     10.35389        -0.076007     -1.033836     -0.332774
H      5.87395     10.35389      7.64558         0.113905     -0.006065      0.389714
H     15.10445     10.62451      7.64558         0.052023     -0.047436      0.922664
H      5.87395     10.62451     13.33282         0.249897     -0.069656     -0.427814
H     15.10445     10.35389     13.33282        -0.186523      0.081721     -0.605032
H     10.35389      7.64558      5.87395         0.179748      0.959392      0.004206
H     10.62451      7.64558     15.10445        -0.044203      0.797983     -0.069969
H     10.62451     13.33282      5.87395         0.449774     -0.447472      0.217132
H     10.35389     13.33282     15.10445        -0.147679     -0.964310     -0.119446
H      7.64558      5.87395     10.35389         0.438937      0.093401     -0.133363
H      7.64558     15.10445     10.62451         0.902057     -0.198135      0.142033
H     13.33282      5.87395     10.62451        -0.436616      0.198398     -0.058136
H     13.33282     15.10445     10.35389        -1.023883     -0.067203      0.276082
H     12.45634     12.45634     19.01126         0.273795      0.258564     -0.217558
H     19.01126     19.01126     19.01126        -0.251411     -0.236297     -0.261160
H     19.01126     12.45634     12.45634        -0.244743      0.274640      0.233171
H     12.45634     19.01126     12.45634         0.205119     -0.284851      0.259497
C     10.35284      5.61067      6.59456        -0.043136     -0.497894     -0.830651
C     10.62556     15.36773      6.59456         0.041434      0.349012     -0.855672
C     10.62556      5.61067     14.38384        -0.011860     -0.290795      0.746119
C     10.35284     15.36773     14.38384         0.237207      0.669665      0.034305
C      6.59456     10.35284      5.61067        -0.712008     -0.029954     -0.283623
C      6.59456     10.62556     15.36773        -0.937506      0.105026      0.426136
C     14.38384     10.62556      5.61067         1.120527      0.261761     -0.297204
C     14.38384     10.35284     15.36773         0.755248     -0.110177      0.440851
C      5.61067      6.59456     10.35284        -0.343365     -0.891814      0.255571
C     15.36773      6.59456     10.62556         0.181227     -0.468219      0.038187
C      5.61067     14.38384     10.62556        -0.236493      0.378588     -0.008999
C     15.36773     14.38384     10.35284         0.310930      0.488964      0.257906
C      5.61067     10.35284      6.59456        -0.347989      0.018591     -0.780377
C     15.36773     10.62556      6.59456         0.536100     -0.148969     -1.282793
C      5.61067     10.62556     14.38384        -0.489723      0.019681      1.117699
C     15.36773     10.35284     14.38384         0.547230     -0.208558      1.370685
C     10.35284      6.59456      5.61067         0.001803     -1.214418     -0.728985
C     10.62556      6.59456     15.36773         0.076020     -1.053004      0.404878
C     10.62556     14.38384      5.61067        -0.070648      1.378350     -0.707249
C     10.35284     14.38384     15.36773         0.051562      0.670746      0.532117
C      6.59456      5.61067     10.35284         0.051148     -0.856544      0.141510
C      6.59456     15.36773     10.62556        -1.689487      0.482634      0.086835
C     14.38384      5.61067     10.62556         0.565686     -0.223249      0.011842
C     14.38384     15.36773     10.35284         0.590717      0.491942     -0.277053
C     10.40319      3.19606      7.29314         0.022730      0.988968     -0.231879
C     10.35913      4.25547      6.23373        -0.010739     -0.281214      0.819914
C      0.08601      7.29314      7.29314        -0.010554     -0.226284     -0.469345
C      0.13007      6.23373      6.23373        -0.014257      0.181528      0.171991
C      0.08601      3.19606      3.19606        -0.024220      0.713013      0.140596
C      0.13007      4.25547      4.25547        -0.113012     -0.203272     -0.140101
C     10.40319      7.29314      3.19606        -0.003959     -0.625691      0.464112
C     10.35913      6.23373      4.25547        -0.000938      0.600834     -0.293198
C      7.29314     10.40319      3.19606        -0.420931      0.018436      0.937117
C      6.23373     10.35913      4.25547         0.262766     -0.018581     -0.200736
C      7.29314      0.08601      7.29314        -0.296152     -0.053777     -0.269835
C      6.23373      0.13007      6.23373         0.337563     -0.109504      0.230387
C      3.19606      0.08601      3.19606         0.299232     -0.063715      1.371315
C      4.25547      0.13007      4.25547        -0.251236     -0.016458     -0.406122
C      3.19606     10.40319      7.29314         0.775270      0.020319     -0.250733
C      4.25547     10.35913      6.23373        -0.115443      0.033690      0.123464
C      3.19606      7.29314     10.40319         0.508349     -1.249185      0.040076
C      4.25547      6.23373     10.35913        -0.777270      0.683957      0.030383
C      7.29314      7.29314      0.08601        -0.660796     -0.222383     -0.019640
C      6.23373      6.23373      0.13007         0.183628      0.246325     -0.005282
C      3.19606      3.19606      0.08601         0.280072      0.260444     -0.014654
C      4.25547      4.25547      0.13007        -0.050405     -0.043542      0.002561
C      7.29314      3.19606     10.40319        -0.322736      0.693420      0.033681
C      6.23373      4.25547     10.35913         0.656074     -0.240383      0.028889
O     10.43466      3.58206      8.50569        -0.053490      0.029394      0.280528
O     10.54374     17.39634      8.50569        -0.024637     -0.201843      0.618795
O     10.54374      3.58206     12.47271         0.072735      0.047208     -0.279093
O     10.43466     17.39634     12.47271        -0.025952     -0.131060     -0.548861
O      8.50569     10.43466      3.58206         0.386073     -0.003317     -0.014469
O      8.50569     10.54374     17.39634         0.454540      0.057366     -0.137284
O     12.47271     10.54374      3.58206        -0.196193      0.070964     -0.123260
O     12.47271     10.43466     17.39634        -0.863672      0.029276     -0.212158
O      3.58206      8.50569     10.43466         0.032612      0.893010      0.043129
O     17.39634      8.50569     10.54374        -0.023560      0.379065      0.079638
O      3.58206     12.47271     10.54374         0.053676     -0.434450      0.059611
O     17.39634     12.47271     10.43466        -0.153518     -0.707448      0.004489
O      3.58206     10.43466      8.50569        -0.055113     -0.063502      0.219359
O     17.39634     10.54374      8.50569        -0.145398      0.052140      0.452125
O      3.58206     10.54374     12.47271        -0.061750     -0.058117     -0.892996
O     17.39634     10.43466     12.47271        -0.203042      0.047357     -0.798708
O     10.43466      8.50569      3.58206         0.018566      0.663725      0.199959
O     10.54374      8.50569     17.39634         0.058341      0.385874     -0.066890
O     10.54374     12.47271      3.58206        -0.061774     -0.732302      0.249886
O     10.43466     12.47271     17.39634         0.064530     -0.836487     -0.275231
O      8.50569      3.58206     10.43466         0.492280      0.091007     -0.039089
O      8.50569     17.39634     10.54374         0.664991     -0.226755     -0.061144
O     12.47271      3.58206     10.54374        -0.531245      0.160103      0.037219
O     12.47271     17.39634     10.43466        -0.459713     -0.016460     -0.052014
O     11.90042     11.90042     19.56718        -0.312025     -0.311766      0.254658
O     19.56718     19.56718     19.56718         0.292276      0.276851      0.317551
O     19.56718     11.90042     11.90042         0.279036     -0.330880     -0.229046
O     11.90042     19.56718     11.90042        -0.221441      0.296486     -0.247196
O      9.45224      1.03696      9.45224        -0.071129      0.057608     -0.069827
O      1.03696      9.45224      9.45224         0.067530     -0.141244     -0.056718
O      1.03696      1.03696      1.03696         0.041953      0.031224      0.188316
O      9.45224      9.45224      1.03696        -0.038648     -0.082080      0.132536
Zr     10.48920      2.52580     10.48920         0.000619     -0.064512     -0.026171
Zr     10.48920     18.45260     10.48920         0.034593      0.280579     -0.038586
Zr     10.48920     10.48920      2.52580        -0.040528     -0.053803     -0.359085
Zr     10.48920     10.48920     18.45260        -0.158267     -0.203773      0.307414
Zr      2.52580     10.48920     10.48920        -0.328801      0.361293     -0.479771
Zr     18.45260     10.48920     10.48920         0.225605      0.042825     -0.307662
Pd      9.01860     10.26979     13.53058        -0.001829     -0.004146      0.002974
Pd     10.62138      9.72205     11.37826         0.001985      0.012163     -0.079388
Pd     13.76283      8.50809     12.88783         0.000265      0.001781     -0.092933
Pd     11.03684     11.15968     15.11623        -0.042820      0.010319      0.005731
Pd     12.79240     11.10723     13.03204         0.026348      0.033703     -0.014835
Pd     15.00430     10.72690     11.39501         0.030095      0.041193      0.004571
Pd      6.60508      7.39370     12.34506         0.082869      0.002542     -0.060563
Pd      9.38661      7.44104     10.24944        -0.065754     -0.032946      0.006147
Pd      9.18435      7.62834     12.96074         0.069890      0.003286     -0.059692
Pd     11.71754      7.26146     11.69838        -0.008166      0.011575     -0.038537
Pd     11.69170      7.63472      8.96944        -0.128348      0.109853      0.003043
Pd      7.20323     11.83574     12.09742        -0.019680      0.028082      0.000380
Pd      8.97775     14.67337      9.32722        -0.003602     -0.013866      0.000527
Pd      8.47661     12.77938     14.32225        -0.006079     -0.049989      0.031364
Pd     13.11857     14.00493      8.67770         0.029388     -0.096849      0.039393
Pd     10.74326     13.00054      8.44751        -0.000022     -0.004876     -0.008523
Pd     14.17353     11.54753      9.04984        -0.093099     -0.148321      0.001469
Pd      8.68801     14.07730     12.01460        -0.013955      0.021455      0.056382
Pd     12.22484     13.75611     13.95388         0.002237     -0.039693      0.010709
Pd     11.22595     14.30513     11.00841        -0.030403      0.023076      0.009403
Pd     14.00430     13.36102     12.08541         0.047731      0.037955      0.038748
Pd     12.23123     11.96940     10.61171        -0.000827      0.068196      0.070219
Pd     12.43280     11.79064      6.99743         0.041345      0.113415     -0.098727
Pd     13.58672      9.15853      7.95219        -0.011673     -0.119816     -0.095305
Pd      6.98049      8.39991      8.97760         0.028053     -0.065622      0.043145
Pd      5.50570      9.85607     11.35635         0.011896      0.050973     -0.007480
Pd      8.80512      9.99327      7.90970         0.046927     -0.076554      0.060483
Pd      9.13789      7.46525      7.61563         0.004448     -0.042122     -0.006682
Pd      9.38732     11.95332     10.45458        -0.020325      0.030619      0.030862
Pd     11.17505     10.28693      8.90665         0.062475      0.103015     -0.112617
Pd     11.06938      9.35051      6.49692         0.044485      0.021273     -0.026848
Pd      9.66877     11.78455      6.20702         0.008472     -0.039984      0.055959
Ir     11.35581      9.03176     13.67275         0.020325      0.042807     -0.047392
Ir     13.03584      9.33114     10.50691         0.035137      0.058305     -0.026121
Ir     10.53574     12.31093     12.69010        -0.042958      0.003489     -0.019360
Ir      7.05331     10.96112      9.62912        -0.079236     -0.073726      0.044025
Ir      8.15831     12.49707      8.22440         0.016691      0.046452     -0.058703
Ir      8.06729      9.34084     11.24909        -0.028127      0.062837     -0.040758
