152
# total energy = -1093.13501522 eVH     10.35389      5.87395      7.64558         0.089334     -0.117420      1.284493
H     10.62451     15.10445      7.64558        -0.181666      0.095579      1.412746
H     10.62451      5.87395     13.33282         0.153113     -0.047061     -1.136137
H     10.35389     15.10445     13.33282        -0.002955     -0.056168     -0.918155
H      7.64558     10.35389      5.87395         0.492126      0.019425     -0.068957
H      7.64558     10.62451     15.10445         0.410207      0.003621     -0.002635
H     13.33282     10.62451      5.87395        -0.663255     -0.040390      0.002253
H     13.33282     10.35389     15.10445        -0.423492     -0.001896     -0.002455
H      5.87395      7.64558     10.35389        -0.136532      1.338310      0.087230
H     15.10445      7.64558     10.62451        -0.010140      0.490953      0.032801
H      5.87395     13.33282     10.62451        -0.064219     -0.234147      0.034256
H     15.10445     13.33282     10.35389         0.233052     -1.610391      0.120793
H      5.87395     10.35389      7.64558        -0.109101     -0.674770      0.484969
H     15.10445     10.62451      7.64558         0.466387      0.823393      0.138427
H      5.87395     10.62451     13.33282        -0.024054     -0.192384     -0.280029
H     15.10445     10.35389     13.33282        -0.072307      0.219421     -0.117202
H     10.35389      7.64558      5.87395        -0.156570      0.434721      0.042304
H     10.62451      7.64558     15.10445         0.034441      0.526561      0.264255
H     10.62451     13.33282      5.87395         0.018535     -0.456465     -0.181356
H     10.35389     13.33282     15.10445        -0.165512     -0.549974      0.194343
H      7.64558      5.87395     10.35389         0.460318     -0.026077     -0.048811
H      7.64558     15.10445     10.62451         0.301429      0.024968     -0.030656
H     13.33282      5.87395     10.62451        -0.201203     -0.089090     -0.016296
H     13.33282     15.10445     10.35389        -0.513032      0.120460     -0.023924
H     12.45634     12.45634     19.01126         0.265277      0.246305     -0.244244
H     19.01126     19.01126     19.01126        -0.262639     -0.242895     -0.252395
H     19.01126     12.45634     12.45634        -0.263656      0.263850      0.232845
H     12.45634     19.01126     12.45634         0.273829     -0.254961      0.226546
C     10.35284      5.61067      6.59456        -0.201198     -0.286518     -1.761230
C     10.62556     15.36773      6.59456         0.447352      0.112981     -1.879392
C     10.62556      5.61067     14.38384        -0.355545     -0.110870      1.688350
C     10.35284     15.36773     14.38384         0.257688      0.141364      1.657405
C      6.59456     10.35284      5.61067        -0.870482     -0.109014     -0.305879
C      6.59456     10.62556     15.36773        -0.825619     -0.007100      0.103755
C     14.38384     10.62556      5.61067         1.030378      0.036211     -0.228368
C     14.38384     10.35284     15.36773         0.780430     -0.013612      0.181066
C      5.61067      6.59456     10.35284        -0.082400     -1.606857      0.032765
C     15.36773      6.59456     10.62556         0.284941     -0.955970      0.033846
C      5.61067     14.38384     10.62556        -0.398038      0.757793      0.036356
C     15.36773     14.38384     10.35284         0.034912      1.850958     -0.089009
C      5.61067     10.35284      6.59456        -0.711958      0.230967     -1.803535
C     15.36773     10.62556      6.59456         0.758240     -0.216158     -1.977338
C      5.61067     10.62556     14.38384        -0.660389      0.094997      1.658352
C     15.36773     10.35284     14.38384         0.595146     -0.071402      1.433486
C     10.35284      6.59456      5.61067         0.030675     -1.571140     -0.770251
C     10.62556      6.59456     15.36773        -0.039560     -1.860418      0.734184
C     10.62556     14.38384      5.61067         0.100314      1.813102     -0.864769
C     10.35284     14.38384     15.36773         0.038747      1.872325      0.644166
C      6.59456      5.61067     10.35284        -0.804742     -0.818520     -0.028444
C      6.59456     15.36773     10.62556        -1.040668      0.562616      0.071867
C     14.38384      5.61067     10.62556         0.994520     -0.733686      0.087771
C     14.38384     15.36773     10.35284         0.896176      0.948829      0.011519
C     10.40319      3.19606      7.29314        -0.004443      0.528226     -0.547839
C     10.35913      4.25547      6.23373        -0.018649     -0.830744      0.516839
C      0.08601      7.29314      7.29314         0.018342     -0.473942     -0.582399
C      0.13007      6.23373      6.23373         0.046070      0.883059      0.455583
C      0.08601      3.19606      3.19606         0.025217      0.690882      0.446426
C      0.13007      4.25547      4.25547        -0.042348     -0.755977     -0.487865
C     10.40319      7.29314      3.19606        -0.011936     -0.741351      0.490265
C     10.35913      6.23373      4.25547         0.016663      0.578456     -0.509000
C      7.29314     10.40319      3.19606        -0.303960     -0.008472      0.562487
C      6.23373     10.35913      4.25547         0.179951     -0.073387     -0.167395
C      7.29314      0.08601      7.29314        -0.237287     -0.031075     -0.393145
C      6.23373      0.13007      6.23373         0.152962     -0.097837      0.369919
C      3.19606      0.08601      3.19606         0.403344      0.011016      0.442563
C      4.25547      0.13007      4.25547        -0.194570      0.072775     -0.211833
C      3.19606     10.40319      7.29314         0.245546      0.028477     -0.465379
C      4.25547     10.35913      6.23373        -0.170354      0.108679      0.371167
C      3.19606      7.29314     10.40319         0.184183     -0.313765      0.002043
C      4.25547      6.23373     10.35913        -0.583600      0.189938      0.050013
C      7.29314      7.29314      0.08601        -0.586630     -0.468393      0.004408
C      6.23373      6.23373      0.13007         0.121506      0.215075     -0.058540
C      3.19606      3.19606      0.08601         0.559335      0.426410      0.001549
C      4.25547      4.25547      0.13007        -0.058281     -0.096542     -0.031410
C      7.29314      3.19606     10.40319        -0.214260      0.362587      0.001857
C      6.23373      4.25547     10.35913         0.633892     -0.258396      0.021880
O     10.43466      3.58206      8.50569         0.014156      0.231597      0.485126
O     10.54374     17.39634      8.50569        -0.031521     -0.236949      0.514116
O     10.54374      3.58206     12.47271         0.078601      0.157512     -0.381218
O     10.43466     17.39634     12.47271        -0.106250     -0.141088     -0.373706
O      8.50569     10.43466      3.58206         0.396998     -0.020775      0.063339
O      8.50569     10.54374     17.39634         0.454585      0.059346     -0.121897
O     12.47271     10.54374      3.58206        -0.504681     -0.010429      0.111448
O     12.47271     10.43466     17.39634        -0.440013     -0.053225     -0.117326
O      3.58206      8.50569     10.43466         0.169408      0.421869     -0.050368
O     17.39634      8.50569     10.54374        -0.086154      0.561337      0.046284
O      3.58206     12.47271     10.54374         0.049997     -0.518524      0.041995
O     17.39634     12.47271     10.43466        -0.177242     -0.463579     -0.021700
O      3.58206     10.43466      8.50569         0.174102     -0.017464      0.475259
O     17.39634     10.54374      8.50569        -0.125232     -0.012087      0.456972
O      3.58206     10.54374     12.47271         0.173399      0.086792     -0.455231
O     17.39634     10.43466     12.47271        -0.201975     -0.079023     -0.560136
O     10.43466      8.50569      3.58206         0.049229      0.622912      0.264566
O     10.54374      8.50569     17.39634         0.059657      0.498955     -0.213773
O     10.54374     12.47271      3.58206        -0.015605     -0.651259      0.273521
O     10.43466     12.47271     17.39634        -0.031376     -0.528809     -0.224617
O      8.50569      3.58206     10.43466         0.514870      0.150036     -0.029855
O      8.50569     17.39634     10.54374         0.615310     -0.094978      0.046904
O     12.47271      3.58206     10.54374        -0.631657      0.113372      0.028731
O     12.47271     17.39634     10.43466        -0.494336     -0.140626     -0.016219
O     11.90042     11.90042     19.56718        -0.311433     -0.284342      0.270847
O     19.56718     19.56718     19.56718         0.311202      0.270391      0.289758
O     19.56718     11.90042     11.90042         0.317224     -0.312179     -0.235725
O     11.90042     19.56718     11.90042        -0.331492      0.281182     -0.225662
O      9.45224      1.03696      9.45224        -0.039086      0.055672     -0.065748
O      1.03696      9.45224      9.45224         0.028811     -0.082421     -0.059900
O      1.03696      1.03696      1.03696         0.027722      0.049108      0.132840
O      9.45224      9.45224      1.03696        -0.031299     -0.086096      0.132628
Zr     10.48920      2.52580     10.48920        -0.101574     -0.122206     -0.008437
Zr     10.48920     18.45260     10.48920         0.124596      0.191699     -0.102540
Zr     10.48920     10.48920      2.52580         0.001273      0.096426     -0.321899
Zr     10.48920     10.48920     18.45260        -0.022263     -0.013562      0.148580
Zr      2.52580     10.48920     10.48920        -0.031241     -0.025289     -0.060643
Zr     18.45260     10.48920     10.48920         0.110968      0.113956     -0.154663
Pd     12.96420      8.08016      7.66479         0.043491      0.011942     -0.043326
Pd      9.57331     14.58693     11.74807         0.004332      0.000646     -0.007617
Pd     12.33985     10.90593     10.42550        -0.005428     -0.002328     -0.010405
Pd     14.68779     10.02846     11.58010        -0.022932     -0.036123     -0.009152
Pd     10.97136      9.30275      6.17479        -0.010397      0.001045     -0.026067
Pd      6.92639      8.50419      8.97540         0.024332      0.004121      0.031437
Ir     10.26818     11.85979     11.75508        -0.032369     -0.014269      0.015877
Ir     12.92719      8.29996     10.33810        -0.010385     -0.026729     -0.034770
Ir     12.31107     10.99959      7.73571         0.017240     -0.021997      0.003152
Ir      9.68207     14.39101      9.15349        -0.005561     -0.019498      0.018245
Ir     10.80728      9.19667     11.72060         0.003284     -0.026266     -0.027363
Ir      8.70027     10.06207      7.76933         0.009453      0.005569     -0.022719
Ir     13.87591     12.53753      9.03697        -0.030273     -0.048058     -0.020527
Ir     11.97417     13.58266      7.80936        -0.004699     -0.014542      0.009562
Ir     14.30712      9.91256      9.02371        -0.011681      0.022290     -0.019254
Ir      9.22243      7.44257     10.39613        -0.003170     -0.035723     -0.004077
Ir      8.16579     12.73061      7.83008        -0.013295      0.026711      0.004486
Ir      9.16914      7.59147      7.82588        -0.001619      0.016880     -0.001123
Ir     11.85743     13.51720     13.02664         0.014867      0.027682      0.018559
Ir     11.40863      6.70121     11.72365         0.002345     -0.005653     -0.003543
Ir     10.24877     11.82021      9.07960        -0.033689      0.001089      0.022934
Ir     12.92262      8.33340     12.98529        -0.029508      0.001014     -0.032997
Ir     10.83097      9.16010      8.99441         0.006509     -0.007764     -0.021388
Ir     11.79498     13.59488     10.40517        -0.007852     -0.026723      0.014864
Ir     13.83689     12.63772     11.78729        -0.005406     -0.024634     -0.004950
Ir     12.39318     10.99209     13.08009        -0.016713     -0.007374      0.020096
Ir     10.13898     11.70270      6.49578        -0.020416     -0.000987     -0.040151
Ir     11.33007      6.58847      9.21710        -0.031950     -0.005270      0.022529
Ir      7.20082      8.35979     11.79588         0.002372      0.024895      0.010588
Ir      8.18643     12.71614     10.43232         0.001820     -0.021080      0.010943
Ir     10.90278      9.26599     14.27614        -0.022939      0.013384     -0.020306
Ir      8.10080     12.53740     12.98912        -0.006674      0.010183      0.030299
Ir      6.59683     11.22065      9.09328        -0.077577      0.015497     -0.011045
Ir      8.66848     10.03767     13.06643        -0.007081      0.017135     -0.031220
Ir      6.59040     10.90902     11.55567         0.000451      0.018180     -0.016865
Ir      9.13136      7.45886     13.04671         0.021012      0.024363     -0.008712
Ir     10.21318     11.65334     14.35855        -0.037534      0.032477      0.027884
Ir      8.72487     10.06072     10.40870        -0.027365     -0.017391     -0.009403
