15
# total energy = -78.70899917 eVC      9.63898      4.79756      7.50000        -0.017313     -0.047069     -0.000000
C      0.64672      1.14089      7.50000         0.017313      0.047069      0.000000
C      1.31140      0.01037      7.50000         0.049419      0.008541      0.000000
C      8.97429      5.92808      7.50000        -0.049419     -0.008541     -0.000000
C      9.62102     -4.80793      7.50000        -0.032106      0.038528      0.000000
C      0.66468     10.74638      7.50000         0.032106     -0.038528      0.000000
O      6.67611      3.87554      7.50000        -0.001748      0.006125      0.000000
O      3.60959      2.06291      7.50000         0.001748     -0.006125     -0.000000
O      3.59133      9.78236      7.50000        -0.004430     -0.004577      0.000000
O      6.69437     -3.84391      7.50000         0.004430      0.004577     -0.000000
O      0.01826      4.15745      7.50000         0.006179     -0.001548     -0.000000
O     10.26744      1.78100      7.50000        -0.006179      0.001548      0.000000
Pd      5.14285     -2.96922      7.50000         0.000000      0.000000     -0.000000
Pd     -0.00000      5.93845      7.50000         0.000000      0.000000     -0.000000
Pd      5.14285      2.96922      7.50000         0.000000      0.000000     -0.000000
