38
# total energy = -273.22655076 eVIr     11.97171     11.50784     10.34583         0.087715      0.060000     -0.007573
Ir     10.52823      7.06223     10.45781         0.000579     -0.068053      0.003693
Ir      8.29775      7.17772     11.83960        -0.037819     -0.019348     -0.003025
Ir      7.34443     11.38544      7.85652        -0.011331      0.027461     -0.032551
Ir     11.95487     11.50988      7.60833         0.022819      0.014520     -0.041487
Ir     13.45071      9.35323      7.71300         0.009484     -0.026938     -0.031129
Ir     12.64832     13.64425      8.97311         0.037819      0.019348      0.003025
Ir      9.58943     11.40110      6.47207        -0.021091      0.027768     -0.021977
Ir     10.35284     13.58735      7.73499        -0.023800      0.019341     -0.032340
Ir      8.83418      9.22560      7.73537        -0.027907     -0.017544     -0.049679
Ir     12.83811      7.25040     11.69345         0.016700     -0.020708      0.036344
Ir     12.76295      7.20894      9.08619         0.016300     -0.020733     -0.036326
Ir     10.59323      7.23461     13.07772         0.023800     -0.019341      0.032340
Ir     14.20574     11.51544      8.96190         0.029812      0.028664      0.004460
Ir     11.12970      9.29572      6.46117         0.020627     -0.027674     -0.022933
Ir      6.66454      9.26456      9.21466        -0.031950     -0.028413      0.008180
Ir     14.28154     11.55739     11.59806         0.031950      0.028413     -0.008180
Ir     11.21107      9.32974      9.08768         0.045367     -0.055180     -0.079896
Ir      8.97436      9.31412     10.46689        -0.087715     -0.060000      0.007573
Ir     13.64857      9.34488     10.33196         0.055994     -0.016068     -0.003385
Ir     13.60166      9.43652     12.95622         0.011331     -0.027461      0.032551
Ir     11.28666      9.37136     11.71402         0.045385     -0.055612      0.079361
Ir      9.65941     11.45060      9.09870        -0.045385      0.055612     -0.079361
Ir      8.22189      7.13600      9.20373        -0.039048     -0.022300      0.006346
Ir     10.44238      7.15148      7.83448         0.022107     -0.021596     -0.034546
Ir      8.99121      9.31207     13.20439        -0.022819     -0.014520      0.041487
Ir      8.10797     13.57156      9.11928        -0.016700      0.020708     -0.036344
Ir     10.50370     13.67046     12.97823        -0.022107      0.021596      0.034546
Ir     10.41784     13.75973     10.35493        -0.000579      0.068053     -0.003693
Ir      9.73501     11.49221     11.72505        -0.045367      0.055180      0.079896
Ir      7.29753     11.47708     10.48078        -0.055994      0.016068      0.003385
Ir      8.18313     13.61301     11.72655        -0.016300      0.020733      0.036326
Ir      7.49536     11.46872     13.09972        -0.009484      0.026938      0.031129
Ir      9.81637     11.52625     14.35156        -0.020627      0.027674      0.022933
Ir     12.72419     13.68596     11.60899         0.039048      0.022300     -0.006346
Ir     12.11190     11.59636     13.07737         0.027907      0.017544      0.049679
Ir     11.35665      9.42085     14.34066         0.021091     -0.027768      0.021977
Ir      6.74034      9.30652     11.85082        -0.029812     -0.028664     -0.004460
