152
# total energy = -1024.42190373 eVH     10.35389      5.87395      7.64558         0.480598      0.026654      0.733795
H     10.62451     15.10445      7.64558         0.059565     -0.200685      0.628823
H     10.62451      5.87395     13.33282         0.091774      0.159300     -0.569142
H     10.35389     15.10445     13.33282        -0.478667     -0.032625     -0.748630
H      7.64558     10.35389      5.87395         0.343825      0.025343      0.160303
H      7.64558     10.62451     15.10445         0.912342     -0.257208      0.041477
H     13.33282     10.62451      5.87395        -0.778899     -0.116613      0.149495
H     13.33282     10.35389     15.10445        -0.894126     -0.416192      0.206789
H      5.87395      7.64558     10.35389         0.162145      0.740400     -0.333175
H     15.10445      7.64558     10.62451        -0.139259      0.383946     -0.019467
H      5.87395     13.33282     10.62451         0.158098     -0.515769     -0.105925
H     15.10445     13.33282     10.35389        -0.092630     -1.198657      0.086119
H      5.87395     10.35389      7.64558         0.139025      0.172450      0.518934
H     15.10445     10.62451      7.64558         0.011968      0.091711      1.051081
H      5.87395     10.62451     13.33282         0.077354     -0.042093     -0.457671
H     15.10445     10.35389     13.33282        -0.165602     -0.166016     -0.455249
H     10.35389      7.64558      5.87395         0.088186      1.029368      0.232059
H     10.62451      7.64558     15.10445         0.000973      0.270356     -0.163289
H     10.62451     13.33282      5.87395        -0.094672     -0.387444      0.319821
H     10.35389     13.33282     15.10445        -0.449773     -0.591484     -0.001065
H      7.64558      5.87395     10.35389         0.517875      0.093566     -0.100686
H      7.64558     15.10445     10.62451         0.932010     -0.222757     -0.176905
H     13.33282      5.87395     10.62451        -0.593487      0.096269     -0.068847
H     13.33282     15.10445     10.35389        -0.597811     -0.059379      0.246091
H     12.45634     12.45634     19.01126         0.235177      0.278764     -0.237323
H     19.01126     19.01126     19.01126        -0.249580     -0.249113     -0.241870
H     19.01126     12.45634     12.45634        -0.266705      0.265023      0.219926
H     12.45634     19.01126     12.45634         0.237854     -0.266548      0.239349
C     10.35284      5.61067      6.59456        -0.207823     -0.699373      0.102536
C     10.62556     15.36773      6.59456        -0.048608      0.380633     -0.855790
C     10.62556      5.61067     14.38384        -0.005356     -0.053558      0.690747
C     10.35284     15.36773     14.38384         0.189945      0.698690      0.159008
C      6.59456     10.35284      5.61067        -0.345722     -0.016748     -0.304141
C      6.59456     10.62556     15.36773        -1.090090      0.258839      0.289579
C     14.38384     10.62556      5.61067         0.405615      0.380928     -0.692903
C     14.38384     10.35284     15.36773         1.050226      0.022196      0.251174
C      5.61067      6.59456     10.35284        -0.412410     -0.382783      0.367461
C     15.36773      6.59456     10.62556         0.189177     -0.494912      0.014156
C      5.61067     14.38384     10.62556        -0.198720      0.576163      0.002935
C     15.36773     14.38384     10.35284         0.339104      0.039308     -0.117355
C      5.61067     10.35284      6.59456        -0.328231     -0.086245     -1.025312
C     15.36773     10.62556      6.59456         0.909111     -0.344668     -0.983370
C      5.61067     10.62556     14.38384        -0.418706      0.028287      0.306996
C     15.36773     10.35284     14.38384         0.655919     -0.095887      1.083551
C     10.35284      6.59456      5.61067        -0.219105     -0.587500     -0.948999
C     10.62556      6.59456     15.36773         0.058422     -0.265677      0.043043
C     10.62556     14.38384      5.61067         0.068474      1.197841     -0.418447
C     10.35284     14.38384     15.36773         0.275311      0.151719      0.706765
C      6.59456      5.61067     10.35284        -0.186348     -0.738309      0.139468
C      6.59456     15.36773     10.62556        -1.218882      0.245002      0.164999
C     14.38384      5.61067     10.62556         1.055261     -0.296826      0.037202
C     14.38384     15.36773     10.35284        -0.469516      0.818206     -0.398999
C     10.40319      3.19606      7.29314        -0.032899      0.868398     -0.413274
C     10.35913      4.25547      6.23373         0.053743     -0.502350      0.552651
C      0.08601      7.29314      7.29314        -0.022416     -0.415229     -0.349111
C      0.13007      6.23373      6.23373        -0.023928      0.016162      0.102434
C      0.08601      3.19606      3.19606         0.009903      1.272319      0.191238
C      0.13007      4.25547      4.25547        -0.045943     -0.217774     -0.199473
C     10.40319      7.29314      3.19606        -0.015018     -1.054136      0.370492
C     10.35913      6.23373      4.25547         0.034197      0.473948     -0.677346
C      7.29314     10.40319      3.19606        -0.312150      0.032934      0.721252
C      6.23373     10.35913      4.25547         0.151489      0.071827     -0.106312
C      7.29314      0.08601      7.29314        -0.656587     -0.021110     -0.277748
C      6.23373      0.13007      6.23373         0.383454     -0.075793      0.533510
C      3.19606      0.08601      3.19606         1.009122     -0.005197      0.255686
C      4.25547      0.13007      4.25547        -0.159612     -0.038354     -0.531930
C      3.19606     10.40319      7.29314         0.364494     -0.011171     -0.962634
C      4.25547     10.35913      6.23373        -0.282244      0.091350      0.245040
C      3.19606      7.29314     10.40319         0.517913     -1.322126     -0.038843
C      4.25547      6.23373     10.35913        -0.543631      0.748002      0.112304
C      7.29314      7.29314      0.08601        -0.391855     -0.226044     -0.000030
C      6.23373      6.23373      0.13007         0.155675      0.143842     -0.003426
C      3.19606      3.19606      0.08601         0.257551      0.253827     -0.017152
C      4.25547      4.25547      0.13007        -0.121927     -0.054578      0.007103
C      7.29314      3.19606     10.40319        -0.392405      0.644028      0.008120
C      6.23373      4.25547     10.35913         1.097345     -0.102515      0.056320
O     10.43466      3.58206      8.50569        -0.024832      0.046933      0.447864
O     10.54374     17.39634      8.50569        -0.006595     -0.110536      0.460353
O     10.54374      3.58206     12.47271         0.039782     -0.107216     -0.129145
O     10.43466     17.39634     12.47271        -0.058357     -0.045013     -0.473478
O      8.50569     10.43466      3.58206         0.290245     -0.031794     -0.034593
O      8.50569     10.54374     17.39634         0.722385      0.026569     -0.199761
O     12.47271     10.54374      3.58206        -0.793910     -0.037327      0.150440
O     12.47271     10.43466     17.39634        -0.281263     -0.028218      0.033002
O      3.58206      8.50569     10.43466         0.158330      1.091023     -0.037405
O     17.39634      8.50569     10.54374        -0.097534      0.431570      0.058262
O      3.58206     12.47271     10.54374         0.067677     -0.400306      0.036304
O     17.39634     12.47271     10.43466        -0.159851     -0.682778     -0.009200
O      3.58206     10.43466      8.50569         0.067781     -0.067712      0.807799
O     17.39634     10.54374      8.50569        -0.060862      0.046957      0.335999
O      3.58206     10.54374     12.47271        -0.013073      0.037504     -0.240940
O     17.39634     10.43466     12.47271        -0.253283      0.001830     -0.711851
O     10.43466      8.50569      3.58206         0.118455      0.832669      0.191197
O     10.54374      8.50569     17.39634         0.032064      0.612550     -0.146940
O     10.54374     12.47271      3.58206         0.007736     -1.011279      0.177186
O     10.43466     12.47271     17.39634        -0.039861     -0.919820     -0.205616
O      8.50569      3.58206     10.43466         0.560072      0.123628     -0.015537
O      8.50569     17.39634     10.54374         0.512205     -0.196462     -0.009500
O     12.47271      3.58206     10.54374        -0.474674      0.159565      0.058514
O     12.47271     17.39634     10.43466        -0.416498      0.023438     -0.005203
O     11.90042     11.90042     19.56718        -0.265681     -0.328634      0.256085
O     19.56718     19.56718     19.56718         0.279414      0.292441      0.282586
O     19.56718     11.90042     11.90042         0.300830     -0.300846     -0.203133
O     11.90042     19.56718     11.90042        -0.266767      0.285550     -0.248891
O      9.45224      1.03696      9.45224        -0.080192      0.046030     -0.059652
O      1.03696      9.45224      9.45224         0.042488     -0.152296     -0.117439
O      1.03696      1.03696      1.03696         0.024612      0.118550      0.196489
O      9.45224      9.45224      1.03696        -0.068334     -0.086972      0.117664
Zr     10.48920      2.52580     10.48920        -0.050452     -0.119234     -0.169887
Zr     10.48920     18.45260     10.48920         0.010606      0.214818     -0.022444
Zr     10.48920     10.48920      2.52580        -0.163951     -0.190999     -0.515770
Zr     10.48920     10.48920     18.45260        -0.005788     -0.002311      0.435669
Zr      2.52580     10.48920     10.48920        -0.364085      0.293899      0.192061
Zr     18.45260     10.48920     10.48920         0.203839      0.056797     -0.201657
Pd      8.32397      9.69727     13.23144         0.010199     -0.025813      0.008633
Pd     10.49772      9.45457     10.18663        -0.005818     -0.001057      0.034228
Pd     13.04529      8.77681     12.46641        -0.011731     -0.025441     -0.006763
Pd     10.29554     10.77403     15.04957         0.024795      0.021841      0.031347
Pd     12.83085     11.35377     13.55204        -0.026555      0.022612      0.017020
Pd     14.85045     10.62888     11.36457         0.005890     -0.022397     -0.019675
Pd      6.86924      7.54105     12.28775         0.030175     -0.019607      0.013765
Pd      9.21882      7.20001      9.45786        -0.021970     -0.007409     -0.005012
Pd      9.56751      7.54386     12.19328        -0.008566      0.029302      0.018527
Pd     11.75560      7.09371     10.80900         0.007648     -0.000224      0.001515
Pd     11.63221      7.83030      8.26505         0.005834     -0.015106     -0.006293
Pd      7.16083     11.67858     11.52618        -0.002834      0.027357      0.009968
Pd      9.29983     14.31637      9.26710        -0.020860      0.002382     -0.007963
Pd      8.15294     12.29642     14.01811        -0.031104      0.035126      0.005619
Pd     14.23860     14.19586      8.34839         0.014403     -0.017004     -0.010217
Pd     11.75550     13.30178      8.79788        -0.032796     -0.022925     -0.023608
Pd     14.13226     11.61391      8.99599        -0.019321      0.006715      0.023761
Pd      8.71718     13.98395     12.01313        -0.010766      0.001751     -0.003032
Pd     12.22167     13.98696     13.95357         0.021923      0.003739     -0.025811
Pd     11.41894     14.14113     11.29799        -0.023042     -0.018193      0.015115
Pd     14.01202     13.30195     12.09453        -0.021318     -0.004573      0.011271
Pd     12.27234     11.52106     10.88592        -0.003949     -0.008167      0.027629
Pd     13.02443     12.61679      6.58734        -0.017489     -0.026677      0.022544
Pd     13.97127      8.83824      7.57377        -0.017959     -0.009677      0.008022
Pd      6.97701      8.46275      8.37702        -0.018196     -0.019875     -0.021829
Pd      5.55331     10.03725     10.03882        -0.031215     -0.013778      0.028262
Pd      9.40646      9.46440      7.45987        -0.011692     -0.016360     -0.006002
Pd      8.48344      6.97865      6.86002        -0.022233      0.000839      0.010606
Pd      9.65716     11.94456     10.53296         0.033423      0.009401      0.000387
Pd     11.81827     10.61376      8.05160        -0.018346      0.009712     -0.004772
Pd     11.79016      8.92441      5.85441         0.003621      0.017296      0.001357
Pd     10.62796     11.33652      5.74007         0.007370     -0.000622     -0.019721
Ir     10.78319      9.82320     12.69390        -0.023243     -0.012813     -0.037603
Ir     13.15859      9.25280      9.95057        -0.013421     -0.002959      0.003085
Ir     10.50286     12.27974     12.89331        -0.003955      0.011820      0.002193
Ir      7.76014     10.99919      9.04873         0.007997     -0.006868     -0.025463
Ir      9.60420     12.05907      7.96865        -0.022400      0.014354      0.022658
Ir      8.00874      9.19698     10.70881         0.045942     -0.055424      0.078827
