152
# total energy = -1060.10618513 eVH     10.35389      5.87395      7.64558        -0.280215      0.048523      1.122388
H     10.62451     15.10445      7.64558         0.098367     -0.087526      0.917749
H     10.62451      5.87395     13.33282        -0.261598      0.079110     -0.787066
H     10.35389     15.10445     13.33282         0.102470     -0.300941     -0.863577
H      7.64558     10.35389      5.87395         0.931214     -0.144209      0.189744
H      7.64558     10.62451     15.10445         0.322765     -0.032032     -0.073452
H     13.33282     10.62451      5.87395        -0.860588      0.196432      0.205083
H     13.33282     10.35389     15.10445        -0.280134     -0.015296     -0.066665
H      5.87395      7.64558     10.35389         0.087806      0.417590     -0.006510
H     15.10445      7.64558     10.62451        -0.010508      0.489231     -0.026215
H      5.87395     13.33282     10.62451        -0.012541     -0.960057      0.081964
H     15.10445     13.33282     10.35389        -0.092757     -0.322766      0.004880
H      5.87395     10.35389      7.64558         0.285534      0.109200      0.403046
H     15.10445     10.62451      7.64558        -0.123226     -0.169819      0.669529
H      5.87395     10.62451     13.33282        -0.081928      0.463320     -0.624903
H     15.10445     10.35389     13.33282         0.242800     -0.612316     -0.845948
H     10.35389      7.64558      5.87395        -0.038463      0.485651      0.335633
H     10.62451      7.64558     15.10445         0.266718      0.775388     -0.030832
H     10.62451     13.33282      5.87395         0.125275     -0.576498      0.210594
H     10.35389     13.33282     15.10445         0.040521     -0.289543     -0.145071
H      7.64558      5.87395     10.35389         0.350246      0.102711      0.034787
H      7.64558     15.10445     10.62451         0.382235     -0.119593      0.169554
H     13.33282      5.87395     10.62451        -0.316399      0.131506     -0.029798
H     13.33282     15.10445     10.35389        -0.652367     -0.131575      0.150822
H     12.45634     12.45634     19.01126         0.256395      0.271637     -0.227994
H     19.01126     19.01126     19.01126        -0.247353     -0.267700     -0.245025
H     19.01126     12.45634     12.45634        -0.250443      0.270060      0.235555
H     12.45634     19.01126     12.45634         0.290566     -0.235409      0.235081
C     10.35284      5.61067      6.59456         0.399918     -0.412436     -1.418032
C     10.62556     15.36773      6.59456        -0.160213      0.593940     -0.652362
C     10.62556      5.61067     14.38384         0.380604     -0.329394      0.831537
C     10.35284     15.36773     14.38384        -0.221375      0.234192      1.074247
C      6.59456     10.35284      5.61067        -1.375771      0.022419     -0.227727
C      6.59456     10.62556     15.36773        -0.636390      0.063203      0.360600
C     14.38384     10.62556      5.61067         1.313843     -0.170341     -0.636073
C     14.38384     10.35284     15.36773         0.351983     -0.127575      0.361505
C      5.61067      6.59456     10.35284        -0.283671     -0.651510     -0.022939
C     15.36773      6.59456     10.62556         0.422450     -0.947916      0.030491
C      5.61067     14.38384     10.62556        -0.142585      1.165483     -0.180379
C     15.36773     14.38384     10.35284         0.465802      0.658331     -0.027921
C      5.61067     10.35284      6.59456        -0.370052     -0.099338     -0.724738
C     15.36773     10.62556      6.59456         0.400665      0.117732     -0.716224
C      5.61067     10.62556     14.38384        -0.376320     -0.170042      1.232458
C     15.36773     10.35284     14.38384         0.252981      0.194524      1.447758
C     10.35284      6.59456      5.61067        -0.056206     -0.721294     -0.586067
C     10.62556      6.59456     15.36773        -0.111966     -0.905849      0.349917
C     10.62556     14.38384      5.61067        -0.478258      0.411016     -0.713572
C     10.35284     14.38384     15.36773        -0.158407      0.608686      0.424588
C      6.59456      5.61067     10.35284        -0.517071     -0.331986      0.022316
C      6.59456     15.36773     10.62556        -0.366085      0.441874      0.060642
C     14.38384      5.61067     10.62556         0.449800     -0.367756      0.001197
C     14.38384     15.36773     10.35284         1.118253      0.490430     -0.075922
C     10.40319      3.19606      7.29314        -0.002176      0.708405     -0.342539
C     10.35913      4.25547      6.23373         0.013527     -0.418943      0.290672
C      0.08601      7.29314      7.29314        -0.014251     -0.376983     -0.505154
C      0.13007      6.23373      6.23373        -0.067256      0.851077      0.067975
C      0.08601      3.19606      3.19606        -0.003391      0.684447      0.265615
C      0.13007      4.25547      4.25547         0.035989     -0.271457     -0.546175
C     10.40319      7.29314      3.19606        -0.066040     -1.148454      0.593108
C     10.35913      6.23373      4.25547        -0.040046      0.363190     -0.200439
C      7.29314     10.40319      3.19606        -1.084084     -0.056015      0.198630
C      6.23373     10.35913      4.25547         0.368828      0.087951     -0.546007
C      7.29314      0.08601      7.29314        -0.450043      0.031939     -0.502911
C      6.23373      0.13007      6.23373         0.183058      0.125381      0.125872
C      3.19606      0.08601      3.19606         0.694715      0.023744      0.165366
C      4.25547      0.13007      4.25547        -0.174890     -0.052873     -0.355648
C      3.19606     10.40319      7.29314         0.397349     -0.026687     -0.899959
C      4.25547     10.35913      6.23373        -0.151010     -0.073849      0.102831
C      3.19606      7.29314     10.40319         0.609867     -0.398731      0.002924
C      4.25547      6.23373     10.35913        -0.112092      0.182563      0.001143
C      7.29314      7.29314      0.08601        -0.413340     -0.310861     -0.014403
C      6.23373      6.23373      0.13007         0.174927      0.185209     -0.069380
C      3.19606      3.19606      0.08601         0.289418      0.480263     -0.023508
C      4.25547      4.25547      0.13007        -0.406419     -0.232566     -0.034121
C      7.29314      3.19606     10.40319        -0.278379      0.595152     -0.010174
C      6.23373      4.25547     10.35913         0.005335     -0.110601      0.020259
O     10.43466      3.58206      8.50569        -0.028500      0.087072      0.315054
O     10.54374     17.39634      8.50569         0.061248     -0.126128      0.588301
O     10.54374      3.58206     12.47271         0.028040      0.106136     -0.393587
O     10.43466     17.39634     12.47271         0.090642     -0.048802     -0.397106
O      8.50569     10.43466      3.58206         0.708428     -0.062449      0.011476
O      8.50569     10.54374     17.39634         0.501665      0.059031     -0.083645
O     12.47271     10.54374      3.58206        -0.648986      0.118187      0.205659
O     12.47271     10.43466     17.39634        -0.287274     -0.004014      0.025230
O      3.58206      8.50569     10.43466         0.038256      0.459712     -0.069647
O     17.39634      8.50569     10.54374        -0.059519      0.450538      0.057245
O      3.58206     12.47271     10.54374         0.114775     -0.582596      0.001703
O     17.39634     12.47271     10.43466        -0.176294     -0.745787     -0.054063
O      3.58206     10.43466      8.50569         0.208573     -0.060859      0.785401
O     17.39634     10.54374      8.50569        -0.089164      0.074721      0.534465
O      3.58206     10.54374     12.47271        -0.002370     -0.002088     -0.267049
O     17.39634     10.43466     12.47271         0.035445     -0.011912     -0.231835
O     10.43466      8.50569      3.58206        -0.104750      0.565416     -0.114679
O     10.54374      8.50569     17.39634         0.068291      0.509361     -0.085116
O     10.54374     12.47271      3.58206         0.104478     -0.625604      0.132530
O     10.43466     12.47271     17.39634        -0.058218     -0.669617     -0.263016
O      8.50569      3.58206     10.43466         0.393366      0.025244     -0.038091
O      8.50569     17.39634     10.54374         0.630717     -0.155377      0.046998
O     12.47271      3.58206     10.54374        -0.507926      0.126711      0.034784
O     12.47271     17.39634     10.43466        -0.623336     -0.130791      0.041500
O     11.90042     11.90042     19.56718        -0.273835     -0.305895      0.232039
O     19.56718     19.56718     19.56718         0.304264      0.318019      0.299277
O     19.56718     11.90042     11.90042         0.284180     -0.324153     -0.232447
O     11.90042     19.56718     11.90042        -0.316098      0.229312     -0.202913
O      9.45224      1.03696      9.45224        -0.085948      0.089705     -0.065824
O      1.03696      9.45224      9.45224         0.106029     -0.119339     -0.047020
O      1.03696      1.03696      1.03696         0.083710      0.057418      0.096738
O      9.45224      9.45224      1.03696        -0.061794     -0.131477      0.131563
Zr     10.48920      2.52580     10.48920         0.032089     -0.093410      0.086002
Zr     10.48920     18.45260     10.48920        -0.172320      0.259115     -0.346211
Zr     10.48920     10.48920      2.52580         0.120382      0.353643     -0.344723
Zr     10.48920     10.48920     18.45260        -0.083347     -0.210668      0.194135
Zr      2.52580     10.48920     10.48920        -0.255997      0.126851      0.233461
Zr     18.45260     10.48920     10.48920         0.223634     -0.119068     -0.010249
Pd      9.39606     14.27993      9.33949        -0.000977      0.033495     -0.038859
Pd      8.61545     13.69420     12.99707        -0.013080     -0.009579      0.030075
Pd     12.04114     14.40969      8.74331         0.012439     -0.012411      0.004914
Pd     12.75362     12.82117     10.64693        -0.027451     -0.006228      0.045416
Pd     12.14649      7.11471     12.61683        -0.000075      0.004735     -0.000369
Pd     11.20031     14.85153     11.48986        -0.021951      0.041560     -0.027472
Pd     10.06142     12.51764     11.09702        -0.047920      0.048184     -0.064507
Pd     13.48626     12.13927      7.98410         0.011163      0.010782      0.007334
Pd     11.48381     11.56000      6.11004         0.006087      0.004474     -0.006615
Pd      7.86239      8.53665      7.54067         0.009934     -0.043590     -0.008687
Pd      8.73340     11.73501      6.87870        -0.007395      0.008242     -0.022373
Pd     10.30584      9.46359      8.14565        -0.009051      0.003783      0.008777
Pd      8.50370     14.44068      6.82845        -0.013162      0.013564     -0.029031
Pd     12.36689      9.03861      6.59086         0.001094      0.008569      0.013898
Pd      9.74440      9.61241      5.55430        -0.000672      0.009289      0.003331
Pd      6.86815      9.46026     12.18733         0.018994      0.018711      0.000480
Pd     12.21003      6.69687      7.88141        -0.000458      0.017942      0.022479
Pd      5.94554     10.45694      9.72756        -0.017087     -0.011619     -0.000984
Pd      7.57522      7.14703     13.28318        -0.002707      0.021036      0.042687
Ir     11.78105      9.69815     13.06147        -0.033333     -0.006195     -0.014128
Ir     13.57141      9.00316     11.45016        -0.021310      0.016172      0.028279
Ir      9.41818      8.83223     13.91361        -0.020518      0.010731      0.069424
Ir     10.55155     10.90256     14.90612        -0.009215     -0.033345      0.085600
Ir      7.28579     12.02273     11.36568         0.001230     -0.022007      0.022786
Ir     14.68212     10.85469     10.11967        -0.011155      0.043336      0.043386
Ir     12.19934     10.49335      9.65294        -0.024804      0.048557     -0.024452
Ir      8.79934     11.04137     13.00970        -0.018378     -0.005283     -0.063141
Ir     10.13988      9.87009     11.19858        -0.006652      0.042873     -0.029591
Ir     13.74021     11.36764     12.43914        -0.072186      0.025181      0.061067
Ir     11.60179     12.28229     13.11224        -0.071233     -0.030142     -0.000692
Ir      8.52449     11.07845      9.37312         0.010214     -0.009382     -0.027162
Ir     11.60025      7.97920     10.07736        -0.004983     -0.005545      0.008518
Ir      7.24520     13.01108      8.70177        -0.000827      0.039422     -0.002531
Ir      9.52108      6.99924      9.12611         0.015693     -0.016461      0.035222
Ir      8.06656      8.74943     10.09671        -0.018489      0.021166     -0.008246
Ir     10.75690     12.09737      8.52940        -0.008677     -0.006191     -0.005551
Ir      9.56439      7.47364     11.67978        -0.011683      0.054582      0.038727
Ir     13.70242      8.71097      8.81295         0.020130      0.002666      0.003027
