152
# total energy = -1024.28981843 eVH     10.35389      5.87395      7.64558         0.474323      0.044439      0.743317
H     10.62451     15.10445      7.64558         0.010672     -0.185960      0.579134
H     10.62451      5.87395     13.33282         0.115034      0.157814     -0.596909
H     10.35389     15.10445     13.33282        -0.411873     -0.055132     -0.757264
H      7.64558     10.35389      5.87395         0.338373      0.005151      0.176205
H      7.64558     10.62451     15.10445         0.848300     -0.340153     -0.032110
H     13.33282     10.62451      5.87395        -0.760854     -0.028744      0.157558
H     13.33282     10.35389     15.10445        -0.873059     -0.381361      0.188451
H      5.87395      7.64558     10.35389         0.211043      0.592697     -0.026184
H     15.10445      7.64558     10.62451        -0.142739      0.401514     -0.041781
H      5.87395     13.33282     10.62451         0.164504     -0.512700     -0.105189
H     15.10445     13.33282     10.35389        -0.099396     -1.151458     -0.014793
H      5.87395     10.35389      7.64558         0.136509      0.124914      0.492734
H     15.10445     10.62451      7.64558         0.052479      0.081697      1.043135
H      5.87395     10.62451     13.33282         0.113848     -0.034867     -0.421752
H     15.10445     10.35389     13.33282        -0.108147     -0.158096     -0.600662
H     10.35389      7.64558      5.87395         0.035699      0.967082      0.249516
H     10.62451      7.64558     15.10445         0.012404      0.280403     -0.178648
H     10.62451     13.33282      5.87395        -0.086990     -0.453244      0.324535
H     10.35389     13.33282     15.10445        -0.443987     -0.656848     -0.026878
H      7.64558      5.87395     10.35389         0.477256      0.120470      0.048367
H      7.64558     15.10445     10.62451         0.883343     -0.260346     -0.016306
H     13.33282      5.87395     10.62451        -0.563866      0.142614     -0.078014
H     13.33282     15.10445     10.35389        -0.638094     -0.062061      0.213272
H     12.45634     12.45634     19.01126         0.239295      0.274912     -0.235241
H     19.01126     19.01126     19.01126        -0.252896     -0.246409     -0.242372
H     19.01126     12.45634     12.45634        -0.261088      0.269092      0.222148
H     12.45634     19.01126     12.45634         0.230787     -0.264165      0.243288
C     10.35284      5.61067      6.59456        -0.187327     -0.623730      0.060220
C     10.62556     15.36773      6.59456        -0.019830      0.382962     -0.747082
C     10.62556      5.61067     14.38384        -0.019032     -0.073343      0.722621
C     10.35284     15.36773     14.38384         0.147989      0.725861      0.166850
C      6.59456     10.35284      5.61067        -0.378075     -0.025564     -0.266293
C      6.59456     10.62556     15.36773        -1.011148      0.343913      0.395943
C     14.38384     10.62556      5.61067         0.420745      0.306609     -0.602530
C     14.38384     10.35284     15.36773         0.947377     -0.009006      0.360354
C      5.61067      6.59456     10.35284        -0.387368     -0.484474      0.228435
C     15.36773      6.59456     10.62556         0.196189     -0.527592      0.029029
C      5.61067     14.38384     10.62556        -0.174662      0.559582      0.010846
C     15.36773     14.38384     10.35284         0.345559      0.018439     -0.123250
C      5.61067     10.35284      6.59456        -0.304382     -0.060930     -0.905971
C     15.36773     10.62556      6.59456         0.754272     -0.291046     -1.072868
C      5.61067     10.62556     14.38384        -0.480456      0.005048      0.300262
C     15.36773     10.35284     14.38384         0.665963     -0.108891      1.130004
C     10.35284      6.59456      5.61067        -0.246100     -0.624362     -0.847444
C     10.62556      6.59456     15.36773         0.049993     -0.293604      0.082177
C     10.62556     14.38384      5.61067         0.117675      1.240992     -0.443123
C     10.35284     14.38384     15.36773         0.206557      0.119437      0.699303
C      6.59456      5.61067     10.35284        -0.371595     -0.729487      0.065411
C      6.59456     15.36773     10.62556        -1.220212      0.280894      0.073487
C     14.38384      5.61067     10.62556         0.885314     -0.274158      0.026186
C     14.38384     15.36773     10.35284        -0.492480      0.743014     -0.333397
C     10.40319      3.19606      7.29314        -0.016701      0.830240     -0.393040
C     10.35913      4.25547      6.23373         0.039648     -0.458353      0.585440
C      0.08601      7.29314      7.29314        -0.018033     -0.492197     -0.354092
C      0.13007      6.23373      6.23373        -0.018715      0.016320      0.094925
C      0.08601      3.19606      3.19606        -0.002707      1.205128      0.184574
C      0.13007      4.25547      4.25547        -0.051557     -0.218584     -0.230923
C     10.40319      7.29314      3.19606        -0.002720     -1.042027      0.399667
C     10.35913      6.23373      4.25547         0.025767      0.468194     -0.651967
C      7.29314     10.40319      3.19606        -0.383176      0.043386      0.817014
C      6.23373     10.35913      4.25547         0.230307      0.087909     -0.117556
C      7.29314      0.08601      7.29314        -0.589276     -0.024597     -0.261366
C      6.23373      0.13007      6.23373         0.383525     -0.064975      0.439076
C      3.19606      0.08601      3.19606         0.880168     -0.016120      0.346483
C      4.25547      0.13007      4.25547        -0.105159     -0.058809     -0.487818
C      3.19606     10.40319      7.29314         0.475470     -0.000822     -0.761594
C      4.25547     10.35913      6.23373        -0.252026      0.106634      0.246840
C      3.19606      7.29314     10.40319         0.489616     -1.358348     -0.042729
C      4.25547      6.23373     10.35913        -0.378209      0.805380      0.040848
C      7.29314      7.29314      0.08601        -0.423580     -0.230244     -0.009797
C      6.23373      6.23373      0.13007         0.165389      0.144801     -0.015266
C      3.19606      3.19606      0.08601         0.247963      0.257539     -0.020307
C      4.25547      4.25547      0.13007        -0.097813     -0.048836      0.017798
C      7.29314      3.19606     10.40319        -0.359715      0.685236      0.013579
C      6.23373      4.25547     10.35913         1.099039      0.052432      0.003666
O     10.43466      3.58206      8.50569        -0.029638      0.058461      0.452042
O     10.54374     17.39634      8.50569        -0.004548     -0.086884      0.436435
O     10.54374      3.58206     12.47271         0.044975     -0.087402     -0.145382
O     10.43466     17.39634     12.47271        -0.055195     -0.047185     -0.478955
O      8.50569     10.43466      3.58206         0.322260     -0.030798     -0.044043
O      8.50569     10.54374     17.39634         0.682271      0.027656     -0.167789
O     12.47271     10.54374      3.58206        -0.729867     -0.034410      0.146003
O     12.47271     10.43466     17.39634        -0.445023     -0.027168     -0.044949
O      3.58206      8.50569     10.43466         0.139747      1.094561     -0.001498
O     17.39634      8.50569     10.54374        -0.079528      0.409086      0.065916
O      3.58206     12.47271     10.54374         0.069896     -0.416071      0.040540
O     17.39634     12.47271     10.43466        -0.158329     -0.701058      0.004704
O      3.58206     10.43466      8.50569         0.028129     -0.073640      0.652863
O     17.39634     10.54374      8.50569        -0.065793      0.043533      0.331552
O      3.58206     10.54374     12.47271        -0.005593      0.024511     -0.306302
O     17.39634     10.43466     12.47271        -0.239242      0.019378     -0.746914
O     10.43466      8.50569      3.58206         0.112219      0.848504      0.201560
O     10.54374      8.50569     17.39634         0.035396      0.674205     -0.161247
O     10.54374     12.47271      3.58206        -0.017676     -1.014160      0.215613
O     10.43466     12.47271     17.39634        -0.029154     -0.885803     -0.193005
O      8.50569      3.58206     10.43466         0.519746      0.100757     -0.019614
O      8.50569     17.39634     10.54374         0.540442     -0.211352     -0.016636
O     12.47271      3.58206     10.54374        -0.468032      0.155259      0.056603
O     12.47271     17.39634     10.43466        -0.377365      0.047167     -0.009159
O     11.90042     11.90042     19.56718        -0.276361     -0.326170      0.262316
O     19.56718     19.56718     19.56718         0.282118      0.283534      0.287495
O     19.56718     11.90042     11.90042         0.289812     -0.305581     -0.198819
O     11.90042     19.56718     11.90042        -0.269969      0.279095     -0.247185
O      9.45224      1.03696      9.45224        -0.086718      0.054422     -0.053674
O      1.03696      9.45224      9.45224         0.036259     -0.174232     -0.107951
O      1.03696      1.03696      1.03696         0.002364      0.107655      0.217306
O      9.45224      9.45224      1.03696        -0.056591     -0.085550      0.138397
Zr     10.48920      2.52580     10.48920        -0.020080     -0.113392     -0.173972
Zr     10.48920     18.45260     10.48920         0.021522      0.236694     -0.027778
Zr     10.48920     10.48920      2.52580        -0.080550     -0.167063     -0.552528
Zr     10.48920     10.48920     18.45260        -0.032630      0.044428      0.464048
Zr      2.52580     10.48920     10.48920        -0.364433      0.323535      0.097485
Zr     18.45260     10.48920     10.48920         0.200841      0.037344     -0.253148
Pd      8.58459      9.91940     13.22597        -0.027368     -0.039504      0.020674
Pd     10.53428      9.50642     10.28684        -0.045216      0.011694      0.016710
Pd     13.38578      8.73750     12.51397        -0.002012     -0.026977     -0.072214
Pd     10.43786     10.63337     15.09454         0.037843      0.014554      0.012457
Pd     12.99235     11.35640     13.46514        -0.015273     -0.008815      0.070038
Pd     14.96427     10.72343     11.30093        -0.045801     -0.016333     -0.014826
Pd      6.82103      7.88533     12.55708         0.001930     -0.048122     -0.031663
Pd      9.23612      7.22209      9.58487        -0.011667      0.002287     -0.042299
Pd      9.48962      7.53679     12.30757        -0.021123      0.037024      0.070263
Pd     11.75153      7.21726     10.98536         0.037369     -0.067703     -0.027762
Pd     11.59865      7.85787      8.36290         0.027777      0.024105      0.026905
Pd      7.17253     11.73024     11.63474        -0.024023      0.014267     -0.019574
Pd      9.21170     14.35993      9.38034         0.034462      0.008060     -0.023431
Pd      8.18865     12.40685     14.21940        -0.023067     -0.007868     -0.037358
Pd     14.13502     14.19453      8.34691         0.065028      0.033479      0.000237
Pd     11.65314     13.34818      8.83718        -0.037754     -0.014894     -0.020206
Pd     14.08187     11.61831      8.94697         0.026318      0.037860      0.010850
Pd      8.76336     13.91819     12.12851        -0.018301      0.022763      0.015097
Pd     12.19967     13.90859     13.98933         0.039669      0.002016     -0.028692
Pd     11.40285     14.09172     11.37428         0.003774      0.014043      0.028418
Pd     14.06051     13.43382     12.12649        -0.066576     -0.025734     -0.013379
Pd     12.33973     11.60518     10.90828        -0.038391      0.007780     -0.040029
Pd     12.86175     12.62269      6.60558         0.019745     -0.022333      0.048651
Pd     13.89235      8.89652      7.59832         0.031408     -0.019743      0.007125
Pd      6.96554      8.44746      8.51566        -0.019327      0.016822     -0.019925
Pd      5.55791     10.01810     10.23607        -0.020140      0.013912     -0.016427
Pd      9.34715      9.48712      7.59094         0.049722     -0.010952     -0.046670
Pd      8.50426      7.00743      6.96712         0.005746     -0.028438      0.020412
Pd      9.67880     11.94352     10.56589         0.052081     -0.014321      0.024872
Pd     11.72235     10.65595      8.12998        -0.000660      0.029691     -0.075675
Pd     11.68632      9.00010      5.92751         0.036127      0.014383      0.041656
Pd     10.44448     11.36165      5.81655        -0.004671     -0.031523     -0.040342
Ir     11.05979      9.63730     12.75941        -0.024883      0.015795     -0.022167
Ir     13.17813      9.30599     10.00867         0.000092      0.007211     -0.020959
Ir     10.52614     12.09469     12.93896        -0.020395     -0.012581     -0.020420
Ir      7.69429     11.00931      9.14570        -0.048608     -0.062091      0.015728
Ir      9.45716     12.13094      8.02280         0.117223      0.035448     -0.011612
Ir      8.05932      9.24104     10.81384         0.009907      0.051763     -0.064974
