152
# total energy = -1110.39258900 eVH     10.35389      5.87395      7.64558        -0.385984     -0.131368      1.144777
H     10.62451     15.10445      7.64558         0.327364      0.078027      0.919881
H     10.62451      5.87395     13.33282        -0.317832     -0.671346     -1.336436
H     10.35389     15.10445     13.33282        -0.588361      0.424206     -0.331595
H      7.64558     10.35389      5.87395         0.561263     -0.525035     -0.102106
H      7.64558     10.62451     15.10445         0.383649     -0.233525      0.042625
H     13.33282     10.62451      5.87395        -0.578304      0.647135     -0.046763
H     13.33282     10.35389     15.10445        -0.526744      0.387034      0.153720
H      5.87395      7.64558     10.35389         0.149440      0.553982      0.028168
H     15.10445      7.64558     10.62451         0.428798      1.012863      0.282954
H      5.87395     13.33282     10.62451        -0.220349     -0.501491      0.362218
H     15.10445     13.33282     10.35389         0.028595     -0.300253     -0.381851
H      5.87395     10.35389      7.64558        -0.103510     -0.411732      1.490407
H     15.10445     10.62451      7.64558         0.219636      0.510658      1.325159
H      5.87395     10.62451     13.33282        -0.213055     -0.367643     -1.201148
H     15.10445     10.35389     13.33282         0.612977      1.003687     -1.535284
H     10.35389      7.64558      5.87395        -0.585340      0.529975     -0.174918
H     10.62451      7.64558     15.10445        -0.133975      0.451712      0.157899
H     10.62451     13.33282      5.87395         0.868635     -1.330181     -0.313489
H     10.35389     13.33282     15.10445         0.226790     -0.563067     -0.105524
H      7.64558      5.87395     10.35389         0.719318      0.164475     -0.171847
H      7.64558     15.10445     10.62451         1.977485      0.753244      0.218311
H     13.33282      5.87395     10.62451        -2.654326     -0.906482     -0.513572
H     13.33282     15.10445     10.35389        -0.877049     -0.055068     -0.255117
H     12.45634     12.45634     19.01126         0.271957      0.257856     -0.227416
H     19.01126     19.01126     19.01126        -0.266784     -0.254704     -0.238755
H     19.01126     12.45634     12.45634        -0.284012      0.281770      0.184919
H     12.45634     19.01126     12.45634         0.256530     -0.250821      0.235595
C     10.35284      5.61067      6.59456         0.076146     -0.486261     -1.205147
C     10.62556     15.36773      6.59456         0.193255      0.756527     -0.817838
C     10.62556      5.61067     14.38384         0.180065     -0.297813      1.782392
C     10.35284     15.36773     14.38384         0.086133      0.385827      1.791756
C      6.59456     10.35284      5.61067        -1.139621     -0.111423     -0.894937
C      6.59456     10.62556     15.36773        -0.699842     -0.095235      0.791283
C     14.38384     10.62556      5.61067         0.842393     -0.112267     -0.993355
C     14.38384     10.35284     15.36773         1.182779      0.167998      1.100219
C      5.61067      6.59456     10.35284        -0.669094     -0.896322     -0.187518
C     15.36773      6.59456     10.62556         2.006234     -0.314161     -0.187659
C      5.61067     14.38384     10.62556        -1.566914     -0.014696     -0.143168
C     15.36773     14.38384     10.35284         0.484801      0.087712      0.001603
C      5.61067     10.35284      6.59456        -0.271966      0.214237     -1.353701
C     15.36773     10.62556      6.59456         0.296447     -0.264255     -0.982318
C      5.61067     10.62556     14.38384        -0.254893      0.444870      1.453158
C     15.36773     10.35284     14.38384         0.002495     -0.491018      1.945941
C     10.35284      6.59456      5.61067        -0.160788     -0.850281     -0.697030
C     10.62556      6.59456     15.36773        -0.118545     -0.715347      1.041551
C     10.62556     14.38384      5.61067        -0.500854      1.988744     -0.752089
C     10.35284     14.38384     15.36773        -0.261174      1.362602      0.500891
C      6.59456      5.61067     10.35284        -0.986726     -0.412186      0.093357
C      6.59456     15.36773     10.62556        -1.257674      0.367324     -0.332338
C     14.38384      5.61067     10.62556         1.270710     -1.299290      0.212569
C     14.38384     15.36773     10.35284         0.454379      0.312852      0.084528
C     10.40319      3.19606      7.29314         0.001092      0.305483     -0.111145
C     10.35913      4.25547      6.23373         0.142292     -0.575294      0.016574
C      0.08601      7.29314      7.29314        -0.053492     -0.279917     -0.421338
C      0.13007      6.23373      6.23373        -0.123219      0.668157      0.019515
C      0.08601      3.19606      3.19606        -0.106059      1.661007      0.165912
C      0.13007      4.25547      4.25547        -0.097086     -0.393777     -1.204692
C     10.40319      7.29314      3.19606         0.015583     -0.451569      0.122743
C     10.35913      6.23373      4.25547         0.264548      0.086008     -0.534996
C      7.29314     10.40319      3.19606        -1.697235      0.010679      0.324345
C      6.23373     10.35913      4.25547         0.671153      0.082514     -0.625363
C      7.29314      0.08601      7.29314        -0.410092     -0.015316     -0.316965
C      6.23373      0.13007      6.23373         0.723595     -0.058245      0.246256
C      3.19606      0.08601      3.19606         0.665207     -0.018666      0.179111
C      4.25547      0.13007      4.25547        -0.356592     -0.084642     -0.568990
C      3.19606     10.40319      7.29314         0.350423      0.023584     -0.319064
C      4.25547     10.35913      6.23373        -0.743461      0.078987      0.362541
C      3.19606      7.29314     10.40319         0.285850     -0.202371     -0.006472
C      4.25547      6.23373     10.35913         0.044046      0.633699      0.092069
C      7.29314      7.29314      0.08601        -0.715965     -0.609442     -0.027267
C      6.23373      6.23373      0.13007         0.899708      1.122866     -0.067069
C      3.19606      3.19606      0.08601         0.823540      0.513344      0.001460
C      4.25547      4.25547      0.13007        -0.325695     -1.766078     -0.129026
C      7.29314      3.19606     10.40319        -0.325429      0.271928     -0.004595
C      6.23373      4.25547     10.35913         0.510228     -0.020192      0.231111
O     10.43466      3.58206      8.50569        -0.048629      0.186796      0.259843
O     10.54374     17.39634      8.50569         0.042003     -0.236866      0.487589
O     10.54374      3.58206     12.47271         0.084110     -0.075010     -0.023597
O     10.43466     17.39634     12.47271        -0.023074     -0.141425     -0.269344
O      8.50569     10.43466      3.58206         0.993028      0.188799      0.376700
O      8.50569     10.54374     17.39634         0.579423      0.084192     -0.229440
O     12.47271     10.54374      3.58206        -0.415404     -0.042036      0.182796
O     12.47271     10.43466     17.39634        -0.506826     -0.067788     -0.193425
O      3.58206      8.50569     10.43466         0.184107      0.423566     -0.028798
O     17.39634      8.50569     10.54374        -0.230481      0.712604      0.046210
O      3.58206     12.47271     10.54374         0.162078     -0.681786      0.026265
O     17.39634     12.47271     10.43466        -0.186712     -0.475588     -0.010377
O      3.58206     10.43466      8.50569         0.231363     -0.061733      0.405499
O     17.39634     10.54374      8.50569        -0.171723      0.037429      0.412917
O      3.58206     10.54374     12.47271         0.147086      0.021777     -0.302682
O     17.39634     10.43466     12.47271         0.081652     -0.051527     -0.070139
O     10.43466      8.50569      3.58206         0.005150      0.274158      0.183449
O     10.54374      8.50569     17.39634         0.069619      0.425968     -0.174025
O     10.54374     12.47271      3.58206        -0.222536     -0.973994      0.328743
O     10.43466     12.47271     17.39634        -0.082179     -0.451243     -0.245364
O      8.50569      3.58206     10.43466         0.489724      0.197216     -0.010054
O      8.50569     17.39634     10.54374         0.664801     -0.203303      0.022238
O     12.47271      3.58206     10.54374        -0.746995      0.280828      0.038351
O     12.47271     17.39634     10.43466        -0.432917     -0.205864     -0.043654
O     11.90042     11.90042     19.56718        -0.347166     -0.307353      0.261007
O     19.56718     19.56718     19.56718         0.324212      0.311487      0.284196
O     19.56718     11.90042     11.90042         0.274542     -0.273947     -0.138268
O     11.90042     19.56718     11.90042        -0.305349      0.283181     -0.232866
O      9.45224      1.03696      9.45224        -0.061313      0.073056     -0.045110
O      1.03696      9.45224      9.45224         0.035717     -0.075783     -0.069990
O      1.03696      1.03696      1.03696         0.063724      0.149787      0.095758
O      9.45224      9.45224      1.03696        -0.143336     -0.098756      0.096036
Zr     10.48920      2.52580     10.48920         0.163529     -0.173118     -0.168002
Zr     10.48920     18.45260     10.48920        -0.101127      0.187684     -0.051011
Zr     10.48920     10.48920      2.52580         0.343097     -0.309177     -0.205816
Zr     10.48920     10.48920     18.45260         0.014588     -0.088438      0.200005
Zr      2.52580     10.48920     10.48920        -0.071698      0.179461     -0.052834
Zr     18.45260     10.48920     10.48920         0.146733     -0.132296     -0.253308
Ir     12.04056     12.48623     10.45386        -0.005866     -0.009342      0.001276
Ir     11.22001      7.41563     10.24250         0.007023     -0.011684     -0.014751
Ir      8.85834      7.34962     11.52230         0.006014      0.003066     -0.012715
Ir      7.46123     11.64626      7.65514        -0.013132     -0.000816     -0.000752
Ir     11.59702     12.07189      7.11070         0.000627     -0.007049     -0.007391
Ir     13.78624      8.99136      7.52064         0.011737      0.003994     -0.018384
Ir     12.47245     13.95219      8.40417        -0.000371      0.003743     -0.001281
Ir      9.73975     11.25371      5.53862         0.006413     -0.000505     -0.002247
Ir      9.07405     13.43916      7.07724         0.004291      0.000872     -0.003269
Ir      9.26952      9.67252      7.49956        -0.013586      0.003965     -0.018467
Ir     13.28537      7.03500     11.96004         0.005482     -0.010392      0.003243
Ir     13.63814      7.04092      9.10592         0.019073      0.002958      0.002405
Ir     11.04609      7.59188     12.79842        -0.009534     -0.002612     -0.017571
Ir     13.59879     11.56525      8.74983         0.001883      0.003361      0.001016
Ir     11.50374      9.62135      6.21556        -0.004077     -0.009452     -0.003033
Ir      7.16368      9.14519      8.91754         0.003448     -0.006833      0.000830
Ir     14.06071     11.43922     11.64537        -0.002162      0.001903     -0.006894
Ir     11.66408      9.82622      8.85672        -0.014356     -0.011749     -0.006116
Ir      9.44717      9.50050     10.22366        -0.004287     -0.009991      0.000284
Ir     13.88075      9.41292     10.16377         0.019268     -0.000755     -0.002242
Ir     13.84090      9.16215     12.87626         0.012472      0.000777     -0.000497
Ir     11.70600      9.76005     11.53684        -0.006576     -0.002012     -0.011390
Ir      9.92038     11.72910      8.96163         0.003717     -0.006012     -0.002302
Ir      9.11141      7.43291      8.76876         0.012337      0.010132     -0.013844
Ir     11.63846      7.52214      7.71870         0.024693     -0.016718     -0.015547
Ir      9.25690      9.46678     13.00246         0.002706      0.001193     -0.014233
Ir      7.50458     13.89881      8.99264         0.003966     -0.003404      0.003919
Ir     10.86394     14.10048     11.95053        -0.008176     -0.007261      0.005912
Ir     10.11194     14.14604      9.51297        -0.003793     -0.006982      0.001558
Ir      9.79251     11.67893     11.72197         0.002356     -0.016081      0.008036
Ir      7.59328     11.56122     10.20283        -0.001044     -0.004924      0.010247
Ir      8.34538     13.73325     11.57943        -0.004261     -0.006540     -0.000847
Ir      7.52669     11.54058     12.81924         0.005518     -0.011079     -0.008567
Ir      9.78014     11.58942     14.34179         0.007491     -0.011966     -0.006371
Ir     13.46653     13.88413     12.18495         0.000810      0.005558      0.001557
Ir     11.99104     12.04461     13.07689        -0.007249     -0.012759     -0.010803
Ir     11.58902      9.77902     14.17472        -0.000983     -0.006563     -0.011588
Ir      7.16019      9.34584     11.47569         0.007815     -0.003791     -0.006300
