152
# total energy = -1024.43673893 eVH     10.35389      5.87395      7.64558         0.471789      0.028304      0.732422
H     10.62451     15.10445      7.64558         0.064074     -0.201614      0.631128
H     10.62451      5.87395     13.33282         0.095587      0.154840     -0.576015
H     10.35389     15.10445     13.33282        -0.487050     -0.029475     -0.748309
H      7.64558     10.35389      5.87395         0.347025      0.028202      0.159954
H      7.64558     10.62451     15.10445         0.931997     -0.245027      0.050182
H     13.33282     10.62451      5.87395        -0.802961     -0.145308      0.149799
H     13.33282     10.35389     15.10445        -0.899711     -0.433392      0.208790
H      5.87395      7.64558     10.35389         0.161726      0.726168     -0.327107
H     15.10445      7.64558     10.62451        -0.140293      0.380741     -0.017167
H      5.87395     13.33282     10.62451         0.156874     -0.515582     -0.103802
H     15.10445     13.33282     10.35389        -0.093585     -1.187155      0.102490
H      5.87395     10.35389      7.64558         0.136913      0.183117      0.519660
H     15.10445     10.62451      7.64558         0.006622      0.099206      1.032350
H      5.87395     10.62451     13.33282         0.072765     -0.040874     -0.461458
H     15.10445     10.35389     13.33282        -0.179589     -0.153509     -0.436278
H     10.35389      7.64558      5.87395         0.089506      1.018108      0.228321
H     10.62451      7.64558     15.10445         0.000579      0.269805     -0.160013
H     10.62451     13.33282      5.87395        -0.087367     -0.384852      0.320439
H     10.35389     13.33282     15.10445        -0.441496     -0.577590      0.002293
H      7.64558      5.87395     10.35389         0.532469      0.089617     -0.114095
H      7.64558     15.10445     10.62451         0.941473     -0.214303     -0.192707
H     13.33282      5.87395     10.62451        -0.592422      0.090150     -0.067952
H     13.33282     15.10445     10.35389        -0.585144     -0.063051      0.242311
H     12.45634     12.45634     19.01126         0.236656      0.277344     -0.237482
H     19.01126     19.01126     19.01126        -0.248969     -0.249173     -0.242264
H     19.01126     12.45634     12.45634        -0.267177      0.264768      0.219592
H     12.45634     19.01126     12.45634         0.237274     -0.266930      0.240062
C     10.35284      5.61067      6.59456        -0.224268     -0.683386      0.098866
C     10.62556     15.36773      6.59456        -0.049636      0.376399     -0.858873
C     10.62556      5.61067     14.38384        -0.005202     -0.053973      0.702589
C     10.35284     15.36773     14.38384         0.201902      0.695374      0.165432
C      6.59456     10.35284      5.61067        -0.351229     -0.015056     -0.310735
C      6.59456     10.62556     15.36773        -1.095100      0.256255      0.281366
C     14.38384     10.62556      5.61067         0.428799      0.384770     -0.686779
C     14.38384     10.35284     15.36773         1.074362      0.033618      0.233899
C      5.61067      6.59456     10.35284        -0.427071     -0.370221      0.361684
C     15.36773      6.59456     10.62556         0.188301     -0.492002      0.012613
C      5.61067     14.38384     10.62556        -0.201313      0.570228     -0.002069
C     15.36773     14.38384     10.35284         0.328652      0.035384     -0.121372
C      5.61067     10.35284      6.59456        -0.332909     -0.092496     -1.005568
C     15.36773     10.62556      6.59456         0.912863     -0.347158     -0.951261
C      5.61067     10.62556     14.38384        -0.423463      0.028288      0.298911
C     15.36773     10.35284     14.38384         0.650205     -0.097749      1.062437
C     10.35284      6.59456      5.61067        -0.241204     -0.581783     -0.938498
C     10.62556      6.59456     15.36773         0.060102     -0.261121      0.044807
C     10.62556     14.38384      5.61067         0.058057      1.202145     -0.417202
C     10.35284     14.38384     15.36773         0.283363      0.165921      0.713669
C      6.59456      5.61067     10.35284        -0.181481     -0.730008      0.157369
C      6.59456     15.36773     10.62556        -1.234406      0.245648      0.172713
C     14.38384      5.61067     10.62556         1.074086     -0.298220      0.038360
C     14.38384     15.36773     10.35284        -0.468033      0.797695     -0.406104
C     10.40319      3.19606      7.29314        -0.034200      0.887046     -0.419128
C     10.35913      4.25547      6.23373         0.054610     -0.510829      0.545724
C      0.08601      7.29314      7.29314        -0.021619     -0.405090     -0.348855
C      0.13007      6.23373      6.23373        -0.023583      0.016441      0.100055
C      0.08601      3.19606      3.19606         0.011416      1.279151      0.192734
C      0.13007      4.25547      4.25547        -0.046617     -0.222247     -0.196704
C     10.40319      7.29314      3.19606        -0.014320     -1.050532      0.373404
C     10.35913      6.23373      4.25547         0.037187      0.476772     -0.675874
C      7.29314     10.40319      3.19606        -0.311388      0.030843      0.728684
C      6.23373     10.35913      4.25547         0.146003      0.067181     -0.105306
C      7.29314      0.08601      7.29314        -0.660815     -0.018581     -0.274064
C      6.23373      0.13007      6.23373         0.381224     -0.076544      0.548827
C      3.19606      0.08601      3.19606         1.013061     -0.004048      0.260317
C      4.25547      0.13007      4.25547        -0.167773     -0.034388     -0.538411
C      3.19606     10.40319      7.29314         0.362839     -0.009071     -0.936200
C      4.25547     10.35913      6.23373        -0.281866      0.089131      0.237578
C      3.19606      7.29314     10.40319         0.521318     -1.343403     -0.037370
C      4.25547      6.23373     10.35913        -0.551446      0.735479      0.112545
C      7.29314      7.29314      0.08601        -0.390759     -0.232160      0.001520
C      6.23373      6.23373      0.13007         0.155728      0.146942     -0.003214
C      3.19606      3.19606      0.08601         0.261859      0.246364     -0.017282
C      4.25547      4.25547      0.13007        -0.123421     -0.055031      0.006353
C      7.29314      3.19606     10.40319        -0.394751      0.632150      0.007839
C      6.23373      4.25547     10.35913         1.080729     -0.126929      0.056821
O     10.43466      3.58206      8.50569        -0.024350      0.042093      0.443740
O     10.54374     17.39634      8.50569        -0.006532     -0.113069      0.463724
O     10.54374      3.58206     12.47271         0.039909     -0.108856     -0.127253
O     10.43466     17.39634     12.47271        -0.058490     -0.045807     -0.476974
O      8.50569     10.43466      3.58206         0.285463     -0.030603     -0.038886
O      8.50569     10.54374     17.39634         0.721652      0.027253     -0.203913
O     12.47271     10.54374      3.58206        -0.790130     -0.037322      0.146946
O     12.47271     10.43466     17.39634        -0.287956     -0.029193      0.030367
O      3.58206      8.50569     10.43466         0.160170      1.105892     -0.033689
O     17.39634      8.50569     10.54374        -0.099114      0.435890      0.058691
O      3.58206     12.47271     10.54374         0.067966     -0.397929      0.035724
O     17.39634     12.47271     10.43466        -0.158888     -0.677341     -0.009356
O      3.58206     10.43466      8.50569         0.068669     -0.067723      0.800041
O     17.39634     10.54374      8.50569        -0.061341      0.045330      0.334447
O      3.58206     10.54374     12.47271        -0.012340      0.036901     -0.243506
O     17.39634     10.43466     12.47271        -0.257298     -0.000576     -0.719289
O     10.43466      8.50569      3.58206         0.118549      0.830611      0.190975
O     10.54374      8.50569     17.39634         0.031929      0.605501     -0.145033
O     10.54374     12.47271      3.58206         0.007225     -1.009928      0.172663
O     10.43466     12.47271     17.39634        -0.041868     -0.934427     -0.209930
O      8.50569      3.58206     10.43466         0.563090      0.127396     -0.015619
O      8.50569     17.39634     10.54374         0.507087     -0.195029     -0.009755
O     12.47271      3.58206     10.54374        -0.477151      0.161599      0.059097
O     12.47271     17.39634     10.43466        -0.409841      0.029313     -0.006878
O     11.90042     11.90042     19.56718        -0.268143     -0.326596      0.257510
O     19.56718     19.56718     19.56718         0.278421      0.292440      0.283339
O     19.56718     11.90042     11.90042         0.301451     -0.300215     -0.202760
O     11.90042     19.56718     11.90042        -0.264825      0.285104     -0.249472
O      9.45224      1.03696      9.45224        -0.080033      0.047780     -0.059340
O      1.03696      9.45224      9.45224         0.042743     -0.152609     -0.114901
O      1.03696      1.03696      1.03696         0.026170      0.120225      0.194812
O      9.45224      9.45224      1.03696        -0.069462     -0.088087      0.116524
Zr     10.48920      2.52580     10.48920        -0.051762     -0.123987     -0.170298
Zr     10.48920     18.45260     10.48920         0.009102      0.215802     -0.023403
Zr     10.48920     10.48920      2.52580        -0.168082     -0.195914     -0.508694
Zr     10.48920     10.48920     18.45260         0.003061     -0.013127      0.434691
Zr      2.52580     10.48920     10.48920        -0.367818      0.301760      0.176857
Zr     18.45260     10.48920     10.48920         0.203722      0.062748     -0.203108
Pd      8.29958      9.67415     13.24811         0.005216     -0.005944     -0.001427
Pd     10.48828      9.44309     10.18766        -0.013944     -0.016771      0.033146
Pd     13.00174      8.78209     12.46674         0.000818      0.017576      0.022463
Pd     10.29662     10.80064     15.05608         0.000958      0.016120      0.037973
Pd     12.80184     11.36524     13.58059        -0.005952     -0.023053      0.017624
Pd     14.85172     10.59173     11.36104         0.005383     -0.007471      0.019303
Pd      6.89009      7.48742     12.29478        -0.000449     -0.002030     -0.001601
Pd      9.20601      7.19439      9.44740        -0.003676      0.003231      0.019525
Pd      9.58134      7.54031     12.20052         0.016182      0.022212      0.002493
Pd     11.75650      7.07983     10.80004        -0.021271     -0.005670     -0.015815
Pd     11.62707      7.82393      8.25886        -0.017194     -0.009657      0.015573
Pd      7.16989     11.67740     11.51567         0.012453     -0.006787      0.009548
Pd      9.28830     14.31479      9.25210        -0.008616      0.003509     -0.000013
Pd      8.13227     12.29269     14.00333        -0.013465      0.018786      0.027395
Pd     14.24058     14.17619      8.34843        -0.012508     -0.007755      0.018812
Pd     11.74316     13.28716      8.79425         0.005968     -0.010353     -0.004729
Pd     14.11738     11.60169      9.01466        -0.012317      0.008432     -0.024359
Pd      8.70729     13.98903     12.00093        -0.019485     -0.012467     -0.006718
Pd     12.22837     14.00336     13.94377        -0.038845      0.019609     -0.001482
Pd     11.41016     14.14118     11.29188        -0.001831     -0.002722      0.001290
Pd     14.00255     13.28556     12.09790         0.025266     -0.021870     -0.022573
Pd     12.27147     11.50949     10.90901        -0.000904     -0.035887     -0.000432
Pd     13.02981     12.59056      6.59552        -0.022042      0.011728      0.013280
Pd     13.96509      8.83418      7.57655         0.001053      0.003950      0.006134
Pd      6.96128      8.45874      8.36612         0.018857     -0.015060      0.026718
Pd      5.55544     10.02099     10.06016        -0.007389      0.003859     -0.007556
Pd      9.39848      9.45525      7.44063        -0.014707     -0.000919      0.009190
Pd      8.47144      6.97392      6.85058         0.007306     -0.019121      0.005027
Pd      9.67263     11.94781     10.52131        -0.016621      0.004130      0.008629
Pd     11.79990     10.60681      8.05470        -0.007943      0.023916      0.026203
Pd     11.79359      8.92753      5.85511        -0.001029     -0.000386     -0.024231
Pd     10.63131     11.33728      5.73288        -0.018787      0.002866      0.023515
Ir     10.74848      9.84765     12.69527        -0.011403     -0.046509     -0.036785
Ir     13.14481      9.24294      9.94927        -0.009865     -0.005646     -0.002593
Ir     10.48771     12.29993     12.89629        -0.011059      0.033658     -0.035152
Ir      7.76953     10.96469      9.05680        -0.054261      0.003829     -0.007309
Ir      9.58074     12.05446      7.96092         0.037178     -0.001232     -0.039062
Ir      8.00406      9.17168     10.72495         0.041605     -0.055139      0.038520
