26
# total energy = -182.09208219 eVH      3.20002      7.07348      0.00000        -0.017496      0.084361      0.000000
H      6.04232      2.16886      0.00000         0.017496     -0.084361     -0.000000
H      2.16886      3.20002      0.00000        -0.084361     -0.017496      0.000000
H      7.07348      6.04232     -0.00000         0.084361      0.017496      0.000000
H      6.04232      7.07348     -0.00000         0.017496      0.084361     -0.000000
H      3.20002      2.16886     -0.00000        -0.017496     -0.084361      0.000000
H      7.07348      3.20002     -0.00000         0.084361     -0.017496      0.000000
H      2.16886      6.04232      0.00000        -0.084361      0.017496     -0.000000
C      8.51178      1.75886     -0.00000        -0.001281      0.022509      0.000000
C      0.73056      7.48348     -0.00000         0.001281     -0.022509      0.000000
C      7.48348      8.51178     -0.00000        -0.022509     -0.001281     -0.000000
C      1.75886      0.73056     -0.00000         0.022509      0.001281      0.000000
C      0.73056      1.75886      0.00000         0.001281      0.022509     -0.000000
C      8.51178      7.48348      0.00000        -0.001281     -0.022509     -0.000000
C      1.75886      8.51178      0.00000         0.022509     -0.001281      0.000000
C      7.48348      0.73056      0.00000        -0.022509      0.001281     -0.000000
N      8.07771      3.05784     -0.00000        -0.084582      0.012609      0.000000
N      1.16463      6.18450      0.00000         0.084582     -0.012609     -0.000000
N      6.18450      8.07771      0.00000        -0.012609     -0.084582      0.000000
N      3.05784      1.16463     -0.00000         0.012609      0.084582     -0.000000
N      1.16463      3.05784      0.00000         0.084582      0.012609      0.000000
N      8.07771      6.18450     -0.00000        -0.084582     -0.012609     -0.000000
N      3.05784      8.07771     -0.00000         0.012609     -0.084582      0.000000
N      6.18450      1.16463      0.00000        -0.012609      0.084582      0.000000
Ir     -0.00000      4.62117      0.00000         0.000000      0.000000     -0.000000
Ir      4.62117      0.00000      0.00000        -0.000000     -0.000000     -0.000000
