152
# total energy = -1110.39554684 eVH     10.35389      5.87395      7.64558        -0.395792     -0.127855      1.169920
H     10.62451     15.10445      7.64558         0.322329      0.077998      0.913292
H     10.62451      5.87395     13.33282        -0.316795     -0.672097     -1.323816
H     10.35389     15.10445     13.33282        -0.582370      0.428492     -0.337813
H      7.64558     10.35389      5.87395         0.561553     -0.518841     -0.103663
H      7.64558     10.62451     15.10445         0.387072     -0.232161      0.042022
H     13.33282     10.62451      5.87395        -0.587681      0.650765     -0.052077
H     13.33282     10.35389     15.10445        -0.524398      0.380086      0.149997
H      5.87395      7.64558     10.35389         0.149449      0.559341      0.026468
H     15.10445      7.64558     10.62451         0.426310      1.029863      0.292939
H      5.87395     13.33282     10.62451        -0.219443     -0.505645      0.362004
H     15.10445     13.33282     10.35389         0.028587     -0.298745     -0.381431
H      5.87395     10.35389      7.64558        -0.108331     -0.422243      1.499059
H     15.10445     10.62451      7.64558         0.221266      0.523071      1.332352
H      5.87395     10.62451     13.33282        -0.218802     -0.369629     -1.207030
H     15.10445     10.35389     13.33282         0.616457      1.019630     -1.535045
H     10.35389      7.64558      5.87395        -0.594119      0.537628     -0.170584
H     10.62451      7.64558     15.10445        -0.131234      0.439635      0.151566
H     10.62451     13.33282      5.87395         0.866737     -1.319332     -0.311468
H     10.35389     13.33282     15.10445         0.218167     -0.562121     -0.108863
H      7.64558      5.87395     10.35389         0.724259      0.160847     -0.178565
H      7.64558     15.10445     10.62451         1.980431      0.742395      0.226997
H     13.33282      5.87395     10.62451        -2.639574     -0.884281     -0.528036
H     13.33282     15.10445     10.35389        -0.875942     -0.057162     -0.253943
H     12.45634     12.45634     19.01126         0.271981      0.257781     -0.227622
H     19.01126     19.01126     19.01126        -0.266735     -0.254691     -0.239011
H     19.01126     12.45634     12.45634        -0.284352      0.281849      0.184349
H     12.45634     19.01126     12.45634         0.256737     -0.250659      0.235579
C     10.35284      5.61067      6.59456         0.077678     -0.475541     -1.195109
C     10.62556     15.36773      6.59456         0.197221      0.755158     -0.812478
C     10.62556      5.61067     14.38384         0.176306     -0.292951      1.780842
C     10.35284     15.36773     14.38384         0.083311      0.383232      1.787408
C      6.59456     10.35284      5.61067        -1.139212     -0.111020     -0.905131
C      6.59456     10.62556     15.36773        -0.699477     -0.092900      0.800411
C     14.38384     10.62556      5.61067         0.829399     -0.112775     -0.986461
C     14.38384     10.35284     15.36773         1.171940      0.168028      1.093284
C      5.61067      6.59456     10.35284        -0.668341     -0.905227     -0.190160
C     15.36773      6.59456     10.62556         2.019403     -0.335931     -0.188151
C      5.61067     14.38384     10.62556        -1.568907     -0.017321     -0.142382
C     15.36773     14.38384     10.35284         0.484227      0.092188     -0.001524
C      5.61067     10.35284      6.59456        -0.273113      0.219326     -1.355420
C     15.36773     10.62556      6.59456         0.300699     -0.273918     -0.974260
C      5.61067     10.62556     14.38384        -0.257631      0.450508      1.452908
C     15.36773     10.35284     14.38384        -0.013040     -0.505561      1.944695
C     10.35284      6.59456      5.61067        -0.154081     -0.837093     -0.703550
C     10.62556      6.59456     15.36773        -0.119508     -0.704730      1.039665
C     10.62556     14.38384      5.61067        -0.498877      1.982838     -0.746808
C     10.35284     14.38384     15.36773        -0.255053      1.345112      0.505497
C      6.59456      5.61067     10.35284        -0.993871     -0.409357      0.097234
C      6.59456     15.36773     10.62556        -1.247661      0.366308     -0.333288
C     14.38384      5.61067     10.62556         1.264117     -1.306801      0.231539
C     14.38384     15.36773     10.35284         0.456515      0.310429      0.088166
C     10.40319      3.19606      7.29314         0.001130      0.304783     -0.114447
C     10.35913      4.25547      6.23373         0.142503     -0.589176      0.017359
C      0.08601      7.29314      7.29314        -0.053618     -0.274501     -0.418968
C      0.13007      6.23373      6.23373        -0.124773      0.659970      0.014078
C      0.08601      3.19606      3.19606        -0.105458      1.671418      0.164231
C      0.13007      4.25547      4.25547        -0.100961     -0.390146     -1.200140
C     10.40319      7.29314      3.19606         0.015974     -0.456754      0.121400
C     10.35913      6.23373      4.25547         0.264825      0.087999     -0.542191
C      7.29314     10.40319      3.19606        -1.703520      0.011990      0.325014
C      6.23373     10.35913      4.25547         0.676450      0.082207     -0.627266
C      7.29314      0.08601      7.29314        -0.411849     -0.016407     -0.320529
C      6.23373      0.13007      6.23373         0.738305     -0.059243      0.240992
C      3.19606      0.08601      3.19606         0.663945     -0.019313      0.178629
C      4.25547      0.13007      4.25547        -0.352022     -0.087870     -0.581501
C      3.19606     10.40319      7.29314         0.344576      0.024758     -0.320845
C      4.25547     10.35913      6.23373        -0.745590      0.082589      0.360532
C      3.19606      7.29314     10.40319         0.283395     -0.200624     -0.006567
C      4.25547      6.23373     10.35913         0.042549      0.630399      0.091797
C      7.29314      7.29314      0.08601        -0.713616     -0.608315     -0.030323
C      6.23373      6.23373      0.13007         0.904549      1.122637     -0.065176
C      3.19606      3.19606      0.08601         0.825966      0.514714     -0.001659
C      4.25547      4.25547      0.13007        -0.320340     -1.773013     -0.131849
C      7.29314      3.19606     10.40319        -0.323709      0.270307     -0.004796
C      6.23373      4.25547     10.35913         0.511949     -0.018873      0.232154
O     10.43466      3.58206      8.50569        -0.048525      0.188202      0.260482
O     10.54374     17.39634      8.50569         0.042250     -0.237212      0.487927
O     10.54374      3.58206     12.47271         0.084338     -0.078824     -0.019660
O     10.43466     17.39634     12.47271        -0.023230     -0.141004     -0.266992
O      8.50569     10.43466      3.58206         0.994682      0.191330      0.374009
O      8.50569     10.54374     17.39634         0.581826      0.084099     -0.229662
O     12.47271     10.54374      3.58206        -0.411874     -0.041867      0.180495
O     12.47271     10.43466     17.39634        -0.503744     -0.066965     -0.191793
O      3.58206      8.50569     10.43466         0.184864      0.421695     -0.028587
O     17.39634      8.50569     10.54374        -0.230384      0.711216      0.046649
O      3.58206     12.47271     10.54374         0.162053     -0.682927      0.026631
O     17.39634     12.47271     10.43466        -0.186980     -0.474091     -0.010048
O      3.58206     10.43466      8.50569         0.233572     -0.062386      0.407638
O     17.39634     10.54374      8.50569        -0.172219      0.037332      0.413728
O      3.58206     10.54374     12.47271         0.148185      0.021624     -0.303575
O     17.39634     10.43466     12.47271         0.084040     -0.052330     -0.067807
O     10.43466      8.50569      3.58206         0.006708      0.273933      0.184508
O     10.54374      8.50569     17.39634         0.069278      0.423436     -0.172672
O     10.54374     12.47271      3.58206        -0.222049     -0.976412      0.325701
O     10.43466     12.47271     17.39634        -0.081588     -0.452100     -0.245320
O      8.50569      3.58206     10.43466         0.487888      0.197626     -0.009490
O      8.50569     17.39634     10.54374         0.664276     -0.204472      0.022726
O     12.47271      3.58206     10.54374        -0.748163      0.282089      0.039090
O     12.47271     17.39634     10.43466        -0.431275     -0.206341     -0.043439
O     11.90042     11.90042     19.56718        -0.347325     -0.306973      0.261591
O     19.56718     19.56718     19.56718         0.323791      0.311499      0.284749
O     19.56718     11.90042     11.90042         0.273999     -0.272853     -0.137713
O     11.90042     19.56718     11.90042        -0.305121      0.282292     -0.232899
O      9.45224      1.03696      9.45224        -0.061896      0.073613     -0.044355
O      1.03696      9.45224      9.45224         0.035742     -0.076185     -0.069401
O      1.03696      1.03696      1.03696         0.065192      0.152644      0.093579
O      9.45224      9.45224      1.03696        -0.145792     -0.100793      0.094019
Zr     10.48920      2.52580     10.48920         0.165672     -0.175563     -0.169660
Zr     10.48920     18.45260     10.48920        -0.101515      0.189558     -0.052334
Zr     10.48920     10.48920      2.52580         0.347035     -0.310816     -0.207591
Zr     10.48920     10.48920     18.45260         0.017129     -0.089302      0.198254
Zr      2.52580     10.48920     10.48920        -0.073072      0.181090     -0.052716
Zr     18.45260     10.48920     10.48920         0.148851     -0.133847     -0.254324
Ir     12.03751     12.48345     10.45282         0.009384     -0.009579     -0.000360
Ir     11.22622      7.41279     10.22708         0.009052     -0.001808     -0.017093
Ir      8.86073      7.34428     11.51002         0.000890     -0.002414     -0.012462
Ir      7.45429     11.64721      7.65646        -0.009919     -0.003285     -0.000541
Ir     11.59772     12.06719      7.10830         0.000493     -0.009814     -0.008908
Ir     13.79129      8.99304      7.51095         0.002100     -0.002954     -0.007250
Ir     12.46912     13.95070      8.40242         0.000006      0.001801     -0.004224
Ir      9.74442     11.25244      5.53217         0.004901     -0.005379     -0.002518
Ir      9.07339     13.43398      7.07764        -0.000523     -0.004819     -0.002692
Ir      9.26162      9.67735      7.49184        -0.001662      0.006505     -0.012333
Ir     13.28483      7.03023     11.96490        -0.001690     -0.004391      0.003970
Ir     13.65299      7.04328      9.10353         0.009322      0.004091     -0.007152
Ir     11.04453      7.58829     12.78451        -0.001776     -0.004882     -0.012499
Ir     13.59494     11.56425      8.74867        -0.005773     -0.003561      0.001401
Ir     11.50109      9.61286      6.21212        -0.004511     -0.005419     -0.005336
Ir      7.16463      9.13994      8.91410         0.002133     -0.004123     -0.000834
Ir     14.06225     11.43978     11.64151        -0.002733      0.007687     -0.005391
Ir     11.66366      9.81592      8.84882         0.006433     -0.009412     -0.009553
Ir      9.44845      9.49593     10.21836        -0.005908     -0.002124      0.000209
Ir     13.88495      9.41456     10.15836         0.001570     -0.001603     -0.010674
Ir     13.84834      9.16053     12.86821         0.009856     -0.007025     -0.007635
Ir     11.70909      9.75590     11.52834         0.001351      0.000406     -0.010078
Ir      9.92175     11.72432      8.95845         0.000774     -0.011917      0.000636
Ir      9.12256      7.43585      8.75140         0.007178     -0.000681     -0.016654
Ir     11.66092      7.50670      7.70435         0.023380     -0.013987     -0.012459
Ir      9.25677      9.46100     12.99781        -0.002671     -0.003008     -0.006815
Ir      7.50436     13.89762      8.99395        -0.003932      0.001215      0.000368
Ir     10.85953     14.09442     11.95271        -0.002324     -0.001302      0.010529
Ir     10.11181     14.14040      9.51259        -0.002728      0.003094     -0.003387
Ir      9.79168     11.67349     11.72103        -0.000869     -0.009584      0.002948
Ir      7.59369     11.55770     10.20282         0.002304     -0.007289      0.003590
Ir      8.34313     13.72862     11.57978        -0.002777     -0.003818     -0.000406
Ir      7.52699     11.53362     12.81843         0.002388     -0.008532     -0.005034
Ir      9.78470     11.57950     14.34103         0.005518     -0.013860     -0.003086
Ir     13.46311     13.88267     12.18423        -0.006508     -0.009416     -0.001327
Ir     11.99118     12.03796     13.07386         0.002797     -0.000172     -0.007886
Ir     11.59231      9.76846     14.16545         0.001226     -0.010773     -0.007187
Ir      7.16071      9.33963     11.47125         0.008160     -0.003337     -0.008054
