152
# total energy = -1110.38233728 eVH     10.35389      5.87395      7.64558        -0.364052     -0.139018      1.089397
H     10.62451     15.10445      7.64558         0.349841      0.080254      0.934662
H     10.62451      5.87395     13.33282        -0.321095     -0.692967     -1.375559
H     10.35389     15.10445     13.33282        -0.607098      0.417310     -0.326681
H      7.64558     10.35389      5.87395         0.545266     -0.527011     -0.090912
H      7.64558     10.62451     15.10445         0.377386     -0.239558      0.045085
H     13.33282     10.62451      5.87395        -0.557748      0.634239     -0.035877
H     13.33282     10.35389     15.10445        -0.527162      0.403793      0.160776
H      5.87395      7.64558     10.35389         0.148323      0.538519      0.032495
H     15.10445      7.64558     10.62451         0.431591      0.971481      0.266420
H      5.87395     13.33282     10.62451        -0.223694     -0.485755      0.361967
H     15.10445     13.33282     10.35389         0.028110     -0.303067     -0.382323
H      5.87395     10.35389      7.64558        -0.086404     -0.380068      1.451713
H     15.10445     10.62451      7.64558         0.214146      0.478762      1.304297
H      5.87395     10.62451     13.33282        -0.196678     -0.361172     -1.184033
H     15.10445     10.35389     13.33282         0.584506      0.948079     -1.525891
H     10.35389      7.64558      5.87395        -0.557867      0.511292     -0.180438
H     10.62451      7.64558     15.10445        -0.139667      0.489217      0.177006
H     10.62451     13.33282      5.87395         0.881181     -1.363341     -0.318643
H     10.35389     13.33282     15.10445         0.249997     -0.557854     -0.093936
H      7.64558      5.87395     10.35389         0.715630      0.171136     -0.158463
H      7.64558     15.10445     10.62451         1.980165      0.771614      0.213333
H     13.33282      5.87395     10.62451        -2.684342     -0.947473     -0.476874
H     13.33282     15.10445     10.35389        -0.877964     -0.051637     -0.250440
H     12.45634     12.45634     19.01126         0.271995      0.257893     -0.227170
H     19.01126     19.01126     19.01126        -0.266819     -0.255032     -0.238369
H     19.01126     12.45634     12.45634        -0.283212      0.281237      0.186248
H     12.45634     19.01126     12.45634         0.256055     -0.251117      0.235992
C     10.35284      5.61067      6.59456         0.081289     -0.499831     -1.227733
C     10.62556     15.36773      6.59456         0.177116      0.758071     -0.817844
C     10.62556      5.61067     14.38384         0.184299     -0.309554      1.801670
C     10.35284     15.36773     14.38384         0.098568      0.385666      1.803189
C      6.59456     10.35284      5.61067        -1.131098     -0.110827     -0.870727
C      6.59456     10.62556     15.36773        -0.698601     -0.100312      0.771796
C     14.38384     10.62556      5.61067         0.860436     -0.110551     -0.999843
C     14.38384     10.35284     15.36773         1.196334      0.167051      1.104204
C      5.61067      6.59456     10.35284        -0.671418     -0.870977     -0.180350
C     15.36773      6.59456     10.62556         1.979283     -0.269530     -0.184842
C      5.61067     14.38384     10.62556        -1.571722     -0.007995     -0.132173
C     15.36773     14.38384     10.35284         0.486070      0.075439      0.011636
C      5.61067     10.35284      6.59456        -0.276214      0.199705     -1.345654
C     15.36773     10.62556      6.59456         0.286060     -0.239563     -0.995463
C      5.61067     10.62556     14.38384        -0.259459      0.425841      1.451308
C     15.36773     10.35284     14.38384         0.041144     -0.452144      1.933237
C     10.35284      6.59456      5.61067        -0.177029     -0.879064     -0.688062
C     10.62556      6.59456     15.36773        -0.111826     -0.754845      1.052140
C     10.62556     14.38384      5.61067        -0.500684      2.008879     -0.771532
C     10.35284     14.38384     15.36773        -0.274489      1.408018      0.491855
C      6.59456      5.61067     10.35284        -0.971789     -0.411180      0.086647
C      6.59456     15.36773     10.62556        -1.290288      0.371624     -0.331498
C     14.38384      5.61067     10.62556         1.284934     -1.265288      0.186402
C     14.38384     15.36773     10.35284         0.444250      0.313476      0.074724
C     10.40319      3.19606      7.29314         0.001706      0.308528     -0.104241
C     10.35913      4.25547      6.23373         0.140443     -0.543648      0.017111
C      0.08601      7.29314      7.29314        -0.053151     -0.295060     -0.424212
C      0.13007      6.23373      6.23373        -0.121953      0.696617      0.028394
C      0.08601      3.19606      3.19606        -0.106852      1.639318      0.170788
C      0.13007      4.25547      4.25547        -0.088025     -0.400642     -1.226447
C     10.40319      7.29314      3.19606         0.016144     -0.434605      0.124010
C     10.35913      6.23373      4.25547         0.261959      0.083174     -0.514173
C      7.29314     10.40319      3.19606        -1.675061      0.008034      0.324717
C      6.23373     10.35913      4.25547         0.658684      0.077353     -0.611522
C      7.29314      0.08601      7.29314        -0.407142     -0.012825     -0.308881
C      6.23373      0.13007      6.23373         0.689162     -0.055622      0.260226
C      3.19606      0.08601      3.19606         0.657776     -0.016783      0.184352
C      4.25547      0.13007      4.25547        -0.369572     -0.077267     -0.537068
C      3.19606     10.40319      7.29314         0.364887      0.019976     -0.316374
C      4.25547     10.35913      6.23373        -0.728115      0.068922      0.365823
C      3.19606      7.29314     10.40319         0.292828     -0.209762     -0.006557
C      4.25547      6.23373     10.35913         0.045235      0.642856      0.091583
C      7.29314      7.29314      0.08601        -0.718864     -0.608611     -0.021872
C      6.23373      6.23373      0.13007         0.879568      1.128649     -0.070837
C      3.19606      3.19606      0.08601         0.817418      0.506364      0.007384
C      4.25547      4.25547      0.13007        -0.328188     -1.748614     -0.128376
C      7.29314      3.19606     10.40319        -0.328990      0.274429     -0.003827
C      6.23373      4.25547     10.35913         0.507647     -0.027092      0.229597
O     10.43466      3.58206      8.50569        -0.048304      0.183567      0.258113
O     10.54374     17.39634      8.50569         0.042178     -0.233504      0.485128
O     10.54374      3.58206     12.47271         0.083819     -0.065831     -0.033810
O     10.43466     17.39634     12.47271        -0.023141     -0.141394     -0.274018
O      8.50569     10.43466      3.58206         0.986327      0.186053      0.384236
O      8.50569     10.54374     17.39634         0.574587      0.084576     -0.228930
O     12.47271     10.54374      3.58206        -0.421244     -0.039134      0.185794
O     12.47271     10.43466     17.39634        -0.514728     -0.069337     -0.196006
O      3.58206      8.50569     10.43466         0.182853      0.430150     -0.029754
O     17.39634      8.50569     10.54374        -0.230362      0.714807      0.044616
O      3.58206     12.47271     10.54374         0.161084     -0.677091      0.025333
O     17.39634     12.47271     10.43466        -0.185706     -0.478802     -0.011613
O      3.58206     10.43466      8.50569         0.225019     -0.060251      0.402195
O     17.39634     10.54374      8.50569        -0.170866      0.036983      0.410719
O      3.58206     10.54374     12.47271         0.147213      0.021059     -0.305242
O     17.39634     10.43466     12.47271         0.073543     -0.050374     -0.079963
O     10.43466      8.50569      3.58206         0.001292      0.274978      0.181779
O     10.54374      8.50569     17.39634         0.070457      0.434683     -0.178726
O     10.54374     12.47271      3.58206        -0.221901     -0.970117      0.340897
O     10.43466     12.47271     17.39634        -0.083762     -0.450158     -0.245270
O      8.50569      3.58206     10.43466         0.493467      0.196571     -0.011572
O      8.50569     17.39634     10.54374         0.664164     -0.199509      0.021979
O     12.47271      3.58206     10.54374        -0.743072      0.278731      0.036682
O     12.47271     17.39634     10.43466        -0.436818     -0.203521     -0.044051
O     11.90042     11.90042     19.56718        -0.346483     -0.307544      0.259512
O     19.56718     19.56718     19.56718         0.325029      0.311770      0.282810
O     19.56718     11.90042     11.90042         0.276367     -0.276049     -0.140071
O     11.90042     19.56718     11.90042        -0.305908      0.285554     -0.233762
O      9.45224      1.03696      9.45224        -0.059337      0.072114     -0.047049
O      1.03696      9.45224      9.45224         0.035768     -0.073958     -0.071761
O      1.03696      1.03696      1.03696         0.059840      0.143462      0.100326
O      9.45224      9.45224      1.03696        -0.136922     -0.092949      0.100483
Zr     10.48920      2.52580     10.48920         0.156331     -0.168492     -0.163599
Zr     10.48920     18.45260     10.48920        -0.098771      0.182240     -0.046693
Zr     10.48920     10.48920      2.52580         0.334909     -0.309344     -0.199332
Zr     10.48920     10.48920     18.45260         0.008762     -0.087477      0.205179
Zr      2.52580     10.48920     10.48920        -0.068495      0.173427     -0.051643
Zr     18.45260     10.48920     10.48920         0.141962     -0.128574     -0.249701
Ir     12.04595     12.48502     10.45980        -0.006207     -0.001733     -0.008724
Ir     11.19811      7.41639     10.28432         0.013248     -0.002006     -0.027755
Ir      8.84183      7.36494     11.55478         0.006967     -0.013578     -0.015220
Ir      7.47793     11.65295      7.66077        -0.007642     -0.006782     -0.000896
Ir     11.59351     12.08411      7.12068         0.003974      0.005141      0.012109
Ir     13.76752      8.99020      7.54411         0.001037     -0.000508     -0.002830
Ir     12.48251     13.95587      8.41652        -0.015407     -0.021169     -0.004312
Ir      9.72867     11.26034      5.55659         0.005489     -0.003273     -0.008393
Ir      9.07897     13.46003      7.07697         0.000995     -0.009267     -0.000196
Ir      9.27694      9.66555      7.51809        -0.002054      0.006647     -0.005513
Ir     13.28113      7.03960     11.95530         0.001163     -0.005722     -0.000375
Ir     13.60218      7.03759      9.11536         0.014038      0.009788     -0.012169
Ir     11.04016      7.59782     12.83259         0.008117     -0.006157     -0.013713
Ir     13.60649     11.56418      8.75464        -0.009096      0.000292     -0.002516
Ir     11.50429      9.64127      6.23092        -0.000163     -0.010959      0.001512
Ir      7.15451      9.16583      8.93408         0.004478     -0.011591     -0.008988
Ir     14.06048     11.43373     11.65690         0.000340      0.008125     -0.004387
Ir     11.65613      9.84934      8.88330         0.008688     -0.014229     -0.014536
Ir      9.43585      9.51103     10.24147         0.017176     -0.004178     -0.025252
Ir     13.86975      9.40705     10.18165         0.003349      0.002423     -0.014413
Ir     13.81982      9.16046     12.89858         0.016531      0.005706      0.001241
Ir     11.69322      9.76278     11.55911         0.005105     -0.002960     -0.023497
Ir      9.91126     11.74150      8.97222         0.005817     -0.012311     -0.010239
Ir      9.08030      7.43340      8.80955         0.018408      0.004278     -0.014863
Ir     11.58100      7.55673      7.75818         0.039309     -0.010195     -0.009527
Ir      9.25412      9.48270     13.01416         0.001209     -0.020046      0.006277
Ir      7.51513     13.90796      8.99499        -0.003554     -0.008072      0.004393
Ir     10.87993     14.10954     11.95101        -0.012082     -0.005234     -0.000642
Ir     10.11517     14.15799      9.52118         0.002121     -0.011929     -0.001322
Ir      9.79296     11.69015     11.72846         0.008412      0.010678     -0.016219
Ir      7.58775     11.57479     10.21350         0.000015     -0.001082     -0.013693
Ir      8.35360     13.74825     11.58630        -0.002319     -0.009734     -0.003249
Ir      7.52637     11.56525     12.82846        -0.012300     -0.012186      0.008034
Ir      9.77158     11.61304     14.34500        -0.000247     -0.005420      0.007752
Ir     13.47806     13.88271     12.19027        -0.003889      0.004682      0.000726
Ir     11.99201     12.05056     13.08322         0.006468      0.003242     -0.004250
Ir     11.57712      9.80057     14.19847         0.010429     -0.015801      0.001201
Ir      7.15193      9.36715     11.49526        -0.010170     -0.017745     -0.005236
