21
# total energy = -137.74957939 eVC      6.16427      9.36672      7.50000         0.015945      0.054962     -0.000000
C     12.33178      1.31198      7.50000        -0.015945     -0.054962      0.000000
C      7.30210     11.33376      7.50000        -0.055571     -0.013672     -0.000000
C     11.19396     -0.65506      7.50000         0.055571      0.013672     -0.000000
C      5.02968     11.33562      7.50000         0.039625     -0.041290     -0.000000
C     13.46637     -0.65692      7.50000        -0.039625      0.041290      0.000000
C     11.19396      0.65506      7.50000         0.055571     -0.013672      0.000000
C      7.30210     10.02364      7.50000        -0.055571      0.013672      0.000000
C     13.46637      0.65692      7.50000        -0.039625     -0.041290      0.000000
C      5.02968     10.02178      7.50000         0.039625      0.041290     -0.000000
C     12.33178     -1.31198      7.50000        -0.015945      0.054962     -0.000000
C      6.16427     11.99068      7.50000         0.015945     -0.054962      0.000000
O      8.38884      6.82750      7.50000         0.059911     -0.103769      0.000000
O     10.10721      3.85120      7.50000        -0.059911      0.103769      0.000000
O      8.38884     14.52990      7.50000         0.059911      0.103769     -0.000000
O     10.10721     -3.85120      7.50000        -0.059911     -0.103769      0.000000
O      1.71837     10.67870      7.50000        -0.119822      0.000000     -0.000000
O     16.77768     -0.00000      7.50000         0.119822      0.000000     -0.000000
Ir      9.24803      5.33935      7.50000         0.000000      0.000000     -0.000000
Ir      9.24803     -5.33935      7.50000         0.000000      0.000000     -0.000000
Ir      0.00000     10.67870      7.50000         0.000000      0.000000     -0.000000
