152
# total energy = -1092.03141372 eVH     10.35389      5.87395      7.64558         0.853006     -1.069499      1.579108
H     10.62451     15.10445      7.64558        -0.759746      1.163444      1.893293
H     10.62451      5.87395     13.33282         0.720840     -0.421402     -1.985102
H     10.35389     15.10445     13.33282        -0.750678      0.514575     -1.862187
H      7.64558     10.35389      5.87395         0.379405     -0.111974      0.009970
H      7.64558     10.62451     15.10445         0.541227     -0.199754      0.114549
H     13.33282     10.62451      5.87395        -0.470373      0.015405      0.103013
H     13.33282     10.35389     15.10445        -0.616939      0.217468      0.040480
H      5.87395      7.64558     10.35389         0.029659      1.261698     -0.037121
H     15.10445      7.64558     10.62451        -0.028338      0.621789     -0.013712
H      5.87395     13.33282     10.62451        -0.071490     -0.614800     -0.004386
H     15.10445     13.33282     10.35389         0.166015     -1.453635      0.124089
H      5.87395     10.35389      7.64558        -0.211664     -0.034497      0.048448
H     15.10445     10.62451      7.64558         0.194949      0.130839      0.220492
H      5.87395     10.62451     13.33282        -0.147945      0.280762     -0.190509
H     15.10445     10.35389     13.33282        -0.004385     -0.207141     -0.249544
H     10.35389      7.64558      5.87395        -0.244155      0.666171     -0.116691
H     10.62451      7.64558     15.10445         0.176046      0.547535      0.332774
H     10.62451     13.33282      5.87395        -0.170169     -1.033758     -0.157390
H     10.35389     13.33282     15.10445        -0.174293     -0.786547      0.264610
H      7.64558      5.87395     10.35389         0.484250     -0.055497     -0.113385
H      7.64558     15.10445     10.62451         0.734969     -0.018665     -0.048668
H     13.33282      5.87395     10.62451        -0.615615      0.026907      0.123756
H     13.33282     15.10445     10.35389        -0.535957      0.185170     -0.029448
H     12.45634     12.45634     19.01126         0.257182      0.251473     -0.243778
H     19.01126     19.01126     19.01126        -0.257977     -0.248107     -0.244861
H     19.01126     12.45634     12.45634        -0.251143      0.268539      0.236126
H     12.45634     19.01126     12.45634         0.254579     -0.270751      0.230919
C     10.35284      5.61067      6.59456        -0.492564     -0.012423     -1.953994
C     10.62556     15.36773      6.59456         0.407920     -0.094956     -2.060718
C     10.62556      5.61067     14.38384        -0.392919     -0.133068      2.015746
C     10.35284     15.36773     14.38384         0.331683      0.210656      1.923425
C      6.59456     10.35284      5.61067        -0.604111     -0.015989     -0.227189
C      6.59456     10.62556     15.36773        -0.914087     -0.068488      0.333537
C     14.38384     10.62556      5.61067         0.715344      0.010135     -0.155397
C     14.38384     10.35284     15.36773         0.819413     -0.041322      0.295438
C      5.61067      6.59456     10.35284        -0.110302     -0.619365      0.118018
C     15.36773      6.59456     10.62556         0.213479     -1.004774     -0.012584
C      5.61067     14.38384     10.62556        -0.311710      1.065489      0.011642
C     15.36773     14.38384     10.35284         0.239964      1.049845      0.008151
C      5.61067     10.35284      6.59456        -0.701687      0.070136     -1.917696
C     15.36773     10.62556      6.59456         0.640938      0.020217     -1.864845
C      5.61067     10.62556     14.38384        -0.771479      0.001692      1.978269
C     15.36773     10.35284     14.38384         0.607138     -0.094339      1.512346
C     10.35284      6.59456      5.61067         0.026095     -1.577803     -0.808244
C     10.62556      6.59456     15.36773         0.033636     -1.730744      1.108859
C     10.62556     14.38384      5.61067         0.076679      1.664281     -0.827946
C     10.35284     14.38384     15.36773        -0.084256      1.784828      1.000258
C      6.59456      5.61067     10.35284        -0.237475     -0.829932     -0.175779
C      6.59456     15.36773     10.62556        -1.599017      0.632002      0.020849
C     14.38384      5.61067     10.62556         1.588709     -0.644283     -0.050940
C     14.38384     15.36773     10.35284         0.310606      1.059752     -0.043661
C     10.40319      3.19606      7.29314        -0.008831      0.577117     -0.355069
C     10.35913      4.25547      6.23373         0.066765     -0.839317      0.657061
C      0.08601      7.29314      7.29314        -0.004980     -0.539269     -0.339443
C      0.13007      6.23373      6.23373        -0.090626      0.856296      0.685445
C      0.08601      3.19606      3.19606        -0.049812      0.518045      0.358046
C      0.13007      4.25547      4.25547        -0.013715     -0.988523     -0.493999
C     10.40319      7.29314      3.19606         0.050956     -0.494658      0.340289
C     10.35913      6.23373      4.25547         0.052911      0.757187     -0.563475
C      7.29314     10.40319      3.19606        -0.357753      0.017146      0.715538
C      6.23373     10.35913      4.25547         0.293579     -0.035835     -0.394415
C      7.29314      0.08601      7.29314        -0.369257      0.031097     -0.433576
C      6.23373      0.13007      6.23373         0.145215      0.043637      0.490974
C      3.19606      0.08601      3.19606         0.315141      0.013405      0.811327
C      4.25547      0.13007      4.25547        -0.361529      0.113028     -0.399505
C      3.19606     10.40319      7.29314         0.381826      0.004104     -0.631389
C      4.25547     10.35913      6.23373        -0.310296      0.004926      0.618922
C      3.19606      7.29314     10.40319         0.281975     -0.488569      0.001344
C      4.25547      6.23373     10.35913        -0.762335      0.333908     -0.002188
C      7.29314      7.29314      0.08601        -0.397878     -0.207514     -0.001610
C      6.23373      6.23373      0.13007         0.081455      0.317471     -0.034428
C      3.19606      3.19606      0.08601         0.378895      0.204980     -0.018642
C      4.25547      4.25547      0.13007        -0.083042     -0.264439     -0.021934
C      7.29314      3.19606     10.40319        -0.346022      0.599134     -0.015791
C      6.23373      4.25547     10.35913         0.700614     -0.607623      0.029678
O     10.43466      3.58206      8.50569        -0.010048      0.177196      0.352001
O     10.54374     17.39634      8.50569         0.007652     -0.188519      0.337311
O     10.54374      3.58206     12.47271         0.072684      0.195569     -0.350909
O     10.43466     17.39634     12.47271        -0.095058     -0.210122     -0.339903
O      8.50569     10.43466      3.58206         0.431117     -0.020779      0.089409
O      8.50569     10.54374     17.39634         0.492508      0.053018     -0.146580
O     12.47271     10.54374      3.58206        -0.359537      0.014432      0.050618
O     12.47271     10.43466     17.39634        -0.466463     -0.052198     -0.119764
O      3.58206      8.50569     10.43466         0.123496      0.490879     -0.036610
O     17.39634      8.50569     10.54374        -0.117891      0.438844      0.038539
O      3.58206     12.47271     10.54374         0.089567     -0.398831      0.051493
O     17.39634     12.47271     10.43466        -0.216699     -0.615923      0.007695
O      3.58206     10.43466      8.50569         0.234489     -0.029651      0.565395
O     17.39634     10.54374      8.50569        -0.158756     -0.002920      0.477182
O      3.58206     10.54374     12.47271         0.373270     -0.026264     -0.645309
O     17.39634     10.43466     12.47271        -0.231631     -0.001793     -0.638387
O     10.43466      8.50569      3.58206         0.032840      0.542832      0.276334
O     10.54374      8.50569     17.39634         0.075296      0.587845     -0.293761
O     10.54374     12.47271      3.58206         0.012988     -0.605719      0.275211
O     10.43466     12.47271     17.39634        -0.057931     -0.605891     -0.294992
O      8.50569      3.58206     10.43466         0.541014      0.141921     -0.036566
O      8.50569     17.39634     10.54374         0.506107     -0.174784      0.034909
O     12.47271      3.58206     10.54374        -0.507489      0.182863      0.004831
O     12.47271     17.39634     10.43466        -0.524718     -0.169520     -0.023822
O     11.90042     11.90042     19.56718        -0.291464     -0.301910      0.260859
O     19.56718     19.56718     19.56718         0.304902      0.289589      0.265786
O     19.56718     11.90042     11.90042         0.303972     -0.324733     -0.259661
O     11.90042     19.56718     11.90042        -0.286790      0.318418     -0.245992
O      9.45224      1.03696      9.45224        -0.044297      0.035251     -0.088047
O      1.03696      9.45224      9.45224         0.059092     -0.042081     -0.081163
O      1.03696      1.03696      1.03696         0.079177      0.033696      0.104939
O      9.45224      9.45224      1.03696        -0.050486     -0.057282      0.102124
Zr     10.48920      2.52580     10.48920        -0.129135     -0.062394      0.011886
Zr     10.48920     18.45260     10.48920         0.094574      0.092448     -0.032049
Zr     10.48920     10.48920      2.52580        -0.046817      0.043390     -0.231540
Zr     10.48920     10.48920     18.45260        -0.009254      0.003333      0.213752
Zr      2.52580     10.48920     10.48920        -0.142268     -0.020772     -0.123271
Zr     18.45260     10.48920     10.48920         0.173470      0.056109     -0.096289
Pd     13.31973      8.38016      8.00404        -0.013677     -0.045281     -0.013173
Pd      8.92757     14.27116     12.03048         0.106955     -0.002521     -0.078184
Pd     12.19864     11.23451     10.59886        -0.084666     -0.202075      0.086645
Pd     14.68228     10.86901     11.70515        -0.032743     -0.098507      0.183986
Pd     11.23774      9.18602      6.43869        -0.070238      0.118484      0.008910
Pd      7.01634      7.71963      8.53380        -0.001356      0.100003      0.087074
Ir      9.94012     11.77186     11.92998         0.110135      0.170648     -0.205382
Ir     13.16406      8.71706     10.70456         0.051200     -0.116476     -0.219116
Ir     12.15845     11.14570      7.93719        -0.049753      0.021339      0.040254
Ir      9.02110     14.09007      9.30814         0.000762      0.103466     -0.134352
Ir     10.87998      9.30378     11.89789        -0.080271     -0.080397      0.090157
Ir      8.70080      9.70971      7.95364         0.071151     -0.020811      0.162556
Ir     13.53979     12.99037      9.10628        -0.067300     -0.122386     -0.039049
Ir     11.34771     13.53546      7.93933         0.251860     -0.083156     -0.096098
Ir     14.28773     10.48804      9.25346        -0.009602      0.020582     -0.250994
Ir      9.58255      7.27361     10.59125        -0.079835     -0.058518      0.300542
Ir      7.77155     12.19491      7.93190         0.021209      0.154202      0.069963
Ir      9.59681      7.42443      8.03865        -0.204042     -0.107457     -0.097612
Ir     11.46683     13.63523     13.18909        -0.128413      0.104896     -0.005921
Ir     11.87296      6.97922     12.09620         0.071739     -0.096974     -0.038463
Ir      9.91790     11.66374      9.26065        -0.041540     -0.157630      0.132951
Ir     13.29156      8.76341     13.28473        -0.164003     -0.124713     -0.031683
Ir     10.97149      9.19884      9.24823         0.149841      0.180470      0.013534
Ir     11.21689     13.72681     10.52183        -0.044277     -0.134267      0.032881
Ir     13.43426     13.20254     11.88897         0.180992     -0.030018     -0.053829
Ir     12.21870     11.22931     13.26284         0.006406     -0.126017     -0.070785
Ir      9.94218     11.48884      6.63626         0.162469      0.115755     -0.035557
Ir     11.79424      6.78066      9.52234         0.092471      0.063922     -0.000957
Ir      7.35518      7.79346     11.95727         0.094289      0.058829     -0.071863
Ir      7.72700     12.26510     10.59458         0.194075     -0.020783     -0.096721
Ir     10.99913      9.33878     14.44237         0.049481      0.063857     -0.090095
Ir      7.65983     12.13897     13.18290         0.065343      0.054263     -0.150891
Ir      6.52503     10.28256      9.32029         0.156139      0.104457      0.017300
Ir      8.65421      9.72303     13.24854         0.038911     -0.231319     -0.067927
Ir      6.37168     10.18223     11.69585         0.278729     -0.035870     -0.124819
Ir      9.34377      7.21483     13.21509        -0.184269      0.274775     -0.020270
Ir      9.86242     11.60114     14.47374         0.314192      0.057632      0.179482
Ir      8.67255      9.70628     10.60695        -0.340356      0.089025     -0.103701
