38
# total energy = -179.15352757 eVPd      8.70445      9.56054     13.32498        -0.069969     -0.080815      0.138124
Pd     11.06938      9.38923     11.88654         0.027041     -0.015314     -0.023573
Pd     13.40581      9.12946     13.34648         0.090536     -0.057997      0.046362
Pd      9.77001     11.66713     14.63648        -0.019394      0.028730      0.055116
Pd     12.15273     11.51662     13.37225         0.118631      0.063238      0.066168
Pd     14.43814     11.15638     11.89306         0.089012      0.038168      0.138311
Pd      7.81271      7.46450     11.83751        -0.033364     -0.022953      0.034788
Pd     10.13665      7.12781     10.55343         0.027071     -0.121467      0.050419
Pd     10.18727      7.26684     13.34371        -0.033218     -0.098056      0.051116
Pd     12.52447      7.06964     11.92501         0.036592     -0.135295      0.053569
Pd     12.55570      6.98997      9.27846         0.018516     -0.110690     -0.086598
Pd      7.29487     12.02076     10.54467        -0.172102      0.096334      0.021207
Pd      8.36984     13.98914      8.99828        -0.078508      0.070462     -0.036345
Pd      7.42329     11.93488     13.22931        -0.125794      0.052569      0.072240
Pd     13.10070     13.57361      9.17098         0.062807      0.051916     -0.032577
Pd     10.78242     13.75830      7.79911         0.021206      0.083807     -0.056578
Pd     14.45571     11.18428      9.23826         0.107817      0.061820     -0.050177
Pd      8.42100     14.07557     11.79715         0.014069      0.069724      0.061430
Pd     10.73265     13.81238     13.21730        -0.045426      0.083189      0.016155
Pd     10.75794     13.91070     10.51576        -0.013776      0.117779     -0.015556
Pd     13.10175     13.59877     11.92857         0.099805      0.075806      0.020740
Pd     12.09021     11.52376     10.58128        -0.048174     -0.030419     -0.046554
Pd     12.20170     11.43169      7.73866         0.092229      0.014014     -0.052157
Pd     13.54459      9.06308      7.89014         0.010404     -0.006676     -0.066854
Pd      7.80351      7.44267      9.13778        -0.040726     -0.107648     -0.012540
Pd      6.38775      9.78358     11.80313        -0.038851     -0.006217     -0.008360
Pd      8.83293      9.38294      7.58353        -0.029764     -0.029177     -0.067809
Pd     10.21472      7.10042      7.83733         0.022756     -0.085427     -0.070064
Pd      9.81084     11.65284      9.22092         0.004405     -0.031428      0.055327
Pd     11.11056      9.29990      9.16023        -0.077958     -0.001820     -0.026357
Pd     11.23732      9.27160      6.44177         0.023060     -0.028517     -0.092650
Pd      9.78277     11.63354      6.45561        -0.032853      0.061961     -0.111792
Ir     11.07640      9.40560     14.48711        -0.004627      0.013646      0.112441
Ir     13.37584      9.16745     10.53506         0.130985     -0.055271      0.066901
Ir      9.70515     11.72545     11.92208         0.013175     -0.042408     -0.046456
Ir      6.77886      9.83809      9.15986        -0.140617     -0.012105     -0.031321
Ir      7.61439     11.72491      7.91753        -0.088454      0.064259     -0.079210
Ir      8.78274      9.60967     10.58935         0.083457      0.032280     -0.046886
