8
# total energy = -53.45622823 eVC      1.14292     13.15359      0.00000         0.000000      0.336304     -0.000000
C      1.14292      4.13261     -0.00000         0.000000     -0.336304      0.000000
O      1.14292      5.31466      0.00000         0.000000      0.782155      0.000000
O      1.14292     11.97154     -0.00000         0.000000     -0.782155     -0.000000
O     -0.00000     13.91970      0.00000         0.000000      0.377563     -0.000000
O      0.00000      3.36650     -0.00000        -0.000000     -0.377563      0.000000
Ir     -0.00000      8.64310      0.00000         0.000000      0.000000      0.000000
Ir     -0.00000      0.00000      0.00000         0.000000      0.000000      0.000000
