152
# total energy = -1060.01343779 eVH     10.35389      5.87395      7.64558        -0.264972      0.008627      1.145301
H     10.62451     15.10445      7.64558         0.029692     -0.084072      0.949538
H     10.62451      5.87395     13.33282        -0.251789      0.075263     -0.795461
H     10.35389     15.10445     13.33282         0.086408     -0.301149     -0.893383
H      7.64558     10.35389      5.87395         0.938476     -0.111791      0.179143
H      7.64558     10.62451     15.10445         0.341158     -0.049083     -0.073808
H     13.33282     10.62451      5.87395        -0.863003      0.198122      0.205772
H     13.33282     10.35389     15.10445        -0.278539     -0.011142     -0.070825
H      5.87395      7.64558     10.35389         0.089402      0.419587     -0.015520
H     15.10445      7.64558     10.62451         0.018745      0.501174     -0.053577
H      5.87395     13.33282     10.62451        -0.020875     -0.960550      0.076868
H     15.10445     13.33282     10.35389        -0.061645     -0.320779      0.000017
H      5.87395     10.35389      7.64558         0.275246      0.121610      0.415171
H     15.10445     10.62451      7.64558        -0.124242     -0.178378      0.657376
H      5.87395     10.62451     13.33282        -0.089869      0.470984     -0.611364
H     15.10445     10.35389     13.33282         0.246271     -0.632731     -0.800762
H     10.35389      7.64558      5.87395        -0.047329      0.483127      0.334893
H     10.62451      7.64558     15.10445         0.234092      0.779896     -0.033060
H     10.62451     13.33282      5.87395         0.131939     -0.568215      0.201942
H     10.35389     13.33282     15.10445         0.032453     -0.286017     -0.144356
H      7.64558      5.87395     10.35389         0.335911      0.093316      0.020308
H      7.64558     15.10445     10.62451         0.373345     -0.115505      0.157805
H     13.33282      5.87395     10.62451        -0.312415      0.128294     -0.030631
H     13.33282     15.10445     10.35389        -0.658521     -0.114062      0.139653
H     12.45634     12.45634     19.01126         0.254671      0.270874     -0.229581
H     19.01126     19.01126     19.01126        -0.244733     -0.269190     -0.246376
H     19.01126     12.45634     12.45634        -0.252054      0.269639      0.235088
H     12.45634     19.01126     12.45634         0.290266     -0.236450      0.233765
C     10.35284      5.61067      6.59456         0.395205     -0.419626     -1.449609
C     10.62556     15.36773      6.59456        -0.133979      0.582411     -0.635744
C     10.62556      5.61067     14.38384         0.389099     -0.353360      0.839577
C     10.35284     15.36773     14.38384        -0.235061      0.202118      1.115662
C      6.59456     10.35284      5.61067        -1.387023      0.023280     -0.243474
C      6.59456     10.62556     15.36773        -0.664061      0.060509      0.385504
C     14.38384     10.62556      5.61067         1.292101     -0.163879     -0.624910
C     14.38384     10.35284     15.36773         0.378546     -0.116580      0.346105
C      5.61067      6.59456     10.35284        -0.296105     -0.650414     -0.016287
C     15.36773      6.59456     10.62556         0.416817     -1.002493      0.046514
C      5.61067     14.38384     10.62556        -0.128647      1.164333     -0.186739
C     15.36773     14.38384     10.35284         0.474232      0.651584     -0.024649
C      5.61067     10.35284      6.59456        -0.378551     -0.099100     -0.740521
C     15.36773     10.62556      6.59456         0.425262      0.120396     -0.776298
C      5.61067     10.62556     14.38384        -0.400991     -0.181479      1.238220
C     15.36773     10.35284     14.38384         0.295877      0.182733      1.507836
C     10.35284      6.59456      5.61067        -0.049537     -0.727123     -0.630085
C     10.62556      6.59456     15.36773        -0.105203     -0.852261      0.356116
C     10.62556     14.38384      5.61067        -0.460607      0.402006     -0.712129
C     10.35284     14.38384     15.36773        -0.153074      0.639761      0.419321
C      6.59456      5.61067     10.35284        -0.512406     -0.344229      0.031260
C      6.59456     15.36773     10.62556        -0.399421      0.465935      0.051210
C     14.38384      5.61067     10.62556         0.440780     -0.374197      0.001162
C     14.38384     15.36773     10.35284         1.127495      0.516438     -0.064802
C     10.40319      3.19606      7.29314         0.000568      0.638905     -0.327480
C     10.35913      4.25547      6.23373         0.004751     -0.445286      0.286366
C      0.08601      7.29314      7.29314        -0.014531     -0.345964     -0.504183
C      0.13007      6.23373      6.23373        -0.074650      0.860988      0.060019
C      0.08601      3.19606      3.19606        -0.002529      0.678907      0.270188
C      0.13007      4.25547      4.25547         0.024342     -0.266755     -0.537193
C     10.40319      7.29314      3.19606        -0.069037     -1.163120      0.551601
C     10.35913      6.23373      4.25547        -0.035347      0.368768     -0.195524
C      7.29314     10.40319      3.19606        -1.079715     -0.058595      0.178195
C      6.23373     10.35913      4.25547         0.359033      0.079300     -0.529055
C      7.29314      0.08601      7.29314        -0.397127      0.036493     -0.575567
C      6.23373      0.13007      6.23373         0.180783      0.135341      0.136021
C      3.19606      0.08601      3.19606         0.697965      0.026775      0.166468
C      4.25547      0.13007      4.25547        -0.169128     -0.047166     -0.361895
C      3.19606     10.40319      7.29314         0.364527     -0.023841     -0.875971
C      4.25547     10.35913      6.23373        -0.162567     -0.086735      0.096043
C      3.19606      7.29314     10.40319         0.594663     -0.392745      0.001754
C      4.25547      6.23373     10.35913        -0.115261      0.187319      0.000940
C      7.29314      7.29314      0.08601        -0.407503     -0.328219     -0.016274
C      6.23373      6.23373      0.13007         0.192056      0.199649     -0.050037
C      3.19606      3.19606      0.08601         0.288168      0.476490     -0.024544
C      4.25547      4.25547      0.13007        -0.395477     -0.223919     -0.036035
C      7.29314      3.19606     10.40319        -0.278079      0.585908     -0.012777
C      6.23373      4.25547     10.35913         0.007187     -0.114638      0.021541
O     10.43466      3.58206      8.50569        -0.027964      0.102799      0.327690
O     10.54374     17.39634      8.50569         0.066572     -0.136578      0.603103
O     10.54374      3.58206     12.47271         0.026710      0.106634     -0.390989
O     10.43466     17.39634     12.47271         0.088184     -0.041609     -0.363761
O      8.50569     10.43466      3.58206         0.713511     -0.062159      0.015967
O      8.50569     10.54374     17.39634         0.436430      0.055144     -0.066543
O     12.47271     10.54374      3.58206        -0.652798      0.111082      0.204820
O     12.47271     10.43466     17.39634        -0.279329     -0.002348      0.013346
O      3.58206      8.50569     10.43466         0.044849      0.462953     -0.064809
O     17.39634      8.50569     10.54374        -0.059272      0.460528      0.054475
O      3.58206     12.47271     10.54374         0.113246     -0.584398      0.002636
O     17.39634     12.47271     10.43466        -0.165436     -0.730555     -0.061500
O      3.58206     10.43466      8.50569         0.219390     -0.063649      0.786181
O     17.39634     10.54374      8.50569        -0.129259      0.077355      0.614913
O      3.58206     10.54374     12.47271         0.000085     -0.003148     -0.268102
O     17.39634     10.43466     12.47271         0.044595     -0.013990     -0.206259
O     10.43466      8.50569      3.58206        -0.103209      0.579912     -0.112164
O     10.54374      8.50569     17.39634         0.063389      0.498859     -0.098419
O     10.54374     12.47271      3.58206         0.105987     -0.629242      0.136457
O     10.43466     12.47271     17.39634        -0.062648     -0.630005     -0.237691
O      8.50569      3.58206     10.43466         0.400511      0.030143     -0.031558
O      8.50569     17.39634     10.54374         0.630271     -0.153597      0.050505
O     12.47271      3.58206     10.54374        -0.509059      0.126561      0.036386
O     12.47271     17.39634     10.43466        -0.618769     -0.137472      0.035538
O     11.90042     11.90042     19.56718        -0.274714     -0.310757      0.236160
O     19.56718     19.56718     19.56718         0.301367      0.320413      0.300097
O     19.56718     11.90042     11.90042         0.286434     -0.326509     -0.230917
O     11.90042     19.56718     11.90042        -0.316941      0.230260     -0.201587
O      9.45224      1.03696      9.45224        -0.080430      0.076927     -0.072996
O      1.03696      9.45224      9.45224         0.095982     -0.111601     -0.047802
O      1.03696      1.03696      1.03696         0.083198      0.052043      0.100173
O      9.45224      9.45224      1.03696        -0.058549     -0.131775      0.131474
Zr     10.48920      2.52580     10.48920         0.031811     -0.078789      0.067228
Zr     10.48920     18.45260     10.48920        -0.169679      0.261815     -0.346974
Zr     10.48920     10.48920      2.52580         0.117852      0.358860     -0.356435
Zr     10.48920     10.48920     18.45260        -0.080235     -0.200969      0.179174
Zr      2.52580     10.48920     10.48920        -0.251179      0.132323      0.222510
Zr     18.45260     10.48920     10.48920         0.226013     -0.106288      0.016708
Pd      9.39658     14.22105      9.40568        -0.003921      0.042005     -0.039347
Pd      8.62417     13.71108     12.94843        -0.011928     -0.013331      0.026085
Pd     12.02460     14.42663      8.73221         0.010797     -0.022658      0.001823
Pd     12.81008     12.82367     10.59032        -0.030372      0.027559      0.046003
Pd     12.14537      7.11769     12.62088        -0.000992      0.029114      0.010881
Pd     11.23558     14.79725     11.53079        -0.011525      0.031713     -0.013299
Pd     10.13343     12.44184     11.16262        -0.050842      0.052456     -0.040455
Pd     13.47029     12.11823      7.97174         0.016919      0.007373     -0.004147
Pd     11.47115     11.55195      6.11729         0.010514     -0.000332     -0.005634
Pd      7.85040      8.60371      7.55120         0.024097     -0.041455     -0.012490
Pd      8.74451     11.71993      6.90388        -0.010389      0.017544     -0.027105
Pd     10.32421      9.47279      8.14197        -0.000277     -0.031025      0.003046
Pd      8.52444     14.42103      6.87908        -0.010430      0.021010     -0.023006
Pd     12.36564      9.02109      6.56467         0.002304     -0.002028      0.002303
Pd      9.74193      9.60240      5.55280        -0.002025      0.002613      0.004115
Pd      6.85728      9.45248     12.18735         0.004911     -0.016614     -0.008662
Pd     12.20861      6.67855      7.86193        -0.001130      0.019401      0.026465
Pd      5.96260     10.46964      9.72466        -0.002725      0.000796      0.003792
Pd      7.57557      7.11983     13.23391         0.007037      0.032860      0.060128
Ir     11.83695      9.71452     13.05804        -0.001450     -0.027774     -0.012875
Ir     13.59554      8.97238     11.43257        -0.055008     -0.008671      0.005505
Ir      9.44421      8.81691     13.82975        -0.007516      0.003571      0.040654
Ir     10.57636     10.96364     14.81738        -0.030053      0.022657      0.045293
Ir      7.29850     12.03747     11.37252        -0.015831     -0.013767     -0.053983
Ir     14.71236     10.80367     10.05142         0.007802      0.030909      0.007693
Ir     12.19285     10.47839      9.68413         0.003271     -0.030584      0.002075
Ir      8.75322     11.03542     13.03679         0.078672      0.006628      0.014495
Ir     10.14921      9.82895     11.25986        -0.019857      0.017598     -0.056414
Ir     13.81622     11.35437     12.35868        -0.021584     -0.000874      0.051962
Ir     11.74708     12.32639     13.10782        -0.087198      0.019802     -0.014822
Ir      8.54519     11.06653      9.40718        -0.053379      0.028442     -0.008135
Ir     11.58982      7.97000     10.06285         0.036613      0.034411      0.016499
Ir      7.23199     12.98127      8.69476         0.016967     -0.012350      0.011062
Ir      9.50815      7.01224      9.07285        -0.003985     -0.001917      0.030690
Ir      8.07455      8.73994     10.11290        -0.009630     -0.004590     -0.010988
Ir     10.76522     12.09337      8.55312        -0.013022      0.022461     -0.033519
Ir      9.57230      7.39151     11.63149        -0.027409      0.043045      0.037014
Ir     13.68125      8.69988      8.78386        -0.046276      0.038810      0.030490
