152
# total energy = -1093.15810510 eVH     10.35389      5.87395      7.64558        -0.042778     -0.115533      1.172790
H     10.62451     15.10445      7.64558        -0.171644      0.083283      1.379648
H     10.62451      5.87395     13.33282         0.146200     -0.036339     -1.067522
H     10.35389     15.10445     13.33282         0.022632     -0.051740     -0.878267
H      7.64558     10.35389      5.87395         0.529556      0.023837     -0.101444
H      7.64558     10.62451     15.10445         0.402134     -0.002041      0.006966
H     13.33282     10.62451      5.87395        -0.671890     -0.035491      0.001096
H     13.33282     10.35389     15.10445        -0.426006     -0.013205     -0.018399
H      5.87395      7.64558     10.35389        -0.144842      1.339714      0.050812
H     15.10445      7.64558     10.62451        -0.018999      0.443264      0.030938
H      5.87395     13.33282     10.62451        -0.077810     -0.224704      0.044422
H     15.10445     13.33282     10.35389         0.179791     -1.517226      0.092041
H      5.87395     10.35389      7.64558        -0.084188     -0.775255      0.496087
H     15.10445     10.62451      7.64558         0.454210      0.808377      0.229828
H      5.87395     10.62451     13.33282        -0.002652     -0.176226     -0.267903
H     15.10445     10.35389     13.33282        -0.066628      0.228144     -0.189036
H     10.35389      7.64558      5.87395        -0.118394      0.414239      0.100190
H     10.62451      7.64558     15.10445         0.054971      0.508277      0.277681
H     10.62451     13.33282      5.87395         0.093579     -0.411000     -0.194177
H     10.35389     13.33282     15.10445        -0.135681     -0.566216      0.174758
H      7.64558      5.87395     10.35389         0.492348     -0.037909     -0.049494
H      7.64558     15.10445     10.62451         0.300821      0.028969     -0.027888
H     13.33282      5.87395     10.62451        -0.196686     -0.082007     -0.007257
H     13.33282     15.10445     10.35389        -0.503300      0.089738     -0.019077
H     12.45634     12.45634     19.01126         0.265213      0.247849     -0.245049
H     19.01126     19.01126     19.01126        -0.263134     -0.242565     -0.252155
H     19.01126     12.45634     12.45634        -0.265535      0.261661      0.233026
H     12.45634     19.01126     12.45634         0.275252     -0.255276      0.226298
C     10.35284      5.61067      6.59456        -0.144736     -0.313633     -1.781968
C     10.62556     15.36773      6.59456         0.427963      0.131880     -1.855084
C     10.62556      5.61067     14.38384        -0.346085     -0.126606      1.709653
C     10.35284     15.36773     14.38384         0.224879      0.148090      1.629434
C      6.59456     10.35284      5.61067        -0.938847     -0.121693     -0.323587
C      6.59456     10.62556     15.36773        -0.826800     -0.006570      0.120779
C     14.38384     10.62556      5.61067         1.034463      0.042884     -0.238475
C     14.38384     10.35284     15.36773         0.767094     -0.024794      0.170422
C      5.61067      6.59456     10.35284        -0.100506     -1.670522      0.071848
C     15.36773      6.59456     10.62556         0.320860     -0.906614      0.037179
C      5.61067     14.38384     10.62556        -0.424141      0.803018      0.044157
C     15.36773     14.38384     10.35284         0.059686      1.801906     -0.068746
C      5.61067     10.35284      6.59456        -0.771107      0.295401     -1.843357
C     15.36773     10.62556      6.59456         0.729902     -0.215855     -1.931719
C      5.61067     10.62556     14.38384        -0.672751      0.089813      1.608671
C     15.36773     10.35284     14.38384         0.556556     -0.057901      1.394079
C     10.35284      6.59456      5.61067         0.030125     -1.540403     -0.745275
C     10.62556      6.59456     15.36773        -0.049833     -1.909194      0.695746
C     10.62556     14.38384      5.61067         0.085624      1.825975     -0.852423
C     10.35284     14.38384     15.36773         0.033534      1.850393      0.613871
C      6.59456      5.61067     10.35284        -0.892086     -0.814688     -0.035560
C      6.59456     15.36773     10.62556        -1.023567      0.571993      0.073558
C     14.38384      5.61067     10.62556         0.950366     -0.680068      0.088481
C     14.38384     15.36773     10.35284         0.879957      0.874303     -0.005309
C     10.40319      3.19606      7.29314        -0.004614      0.526097     -0.578595
C     10.35913      4.25547      6.23373        -0.009151     -0.828308      0.535409
C      0.08601      7.29314      7.29314         0.014073     -0.460790     -0.572820
C      0.13007      6.23373      6.23373         0.059724      0.845939      0.448341
C      0.08601      3.19606      3.19606         0.027186      0.690360      0.461543
C      0.13007      4.25547      4.25547        -0.040831     -0.735225     -0.484534
C     10.40319      7.29314      3.19606        -0.017481     -0.822372      0.480649
C     10.35913      6.23373      4.25547         0.009666      0.562820     -0.510213
C      7.29314     10.40319      3.19606        -0.316250     -0.006429      0.496864
C      6.23373     10.35913      4.25547         0.188930     -0.078489     -0.147572
C      7.29314      0.08601      7.29314        -0.253165     -0.031711     -0.379126
C      6.23373      0.13007      6.23373         0.156988     -0.095899      0.371573
C      3.19606      0.08601      3.19606         0.420585      0.013342      0.483870
C      4.25547      0.13007      4.25547        -0.207905      0.070036     -0.195527
C      3.19606     10.40319      7.29314         0.219205      0.034604     -0.508333
C      4.25547     10.35913      6.23373        -0.188434      0.105547      0.340482
C      3.19606      7.29314     10.40319         0.170234     -0.319104      0.009833
C      4.25547      6.23373     10.35913        -0.572623      0.174964      0.053220
C      7.29314      7.29314      0.08601        -0.587345     -0.465320      0.003452
C      6.23373      6.23373      0.13007         0.119823      0.191701     -0.058090
C      3.19606      3.19606      0.08601         0.557388      0.464081      0.004946
C      4.25547      4.25547      0.13007        -0.067595     -0.101209     -0.036113
C      7.29314      3.19606     10.40319        -0.217833      0.335555      0.011348
C      6.23373      4.25547     10.35913         0.593494     -0.246251      0.018605
O     10.43466      3.58206      8.50569         0.016281      0.238484      0.500118
O     10.54374     17.39634      8.50569        -0.028605     -0.240305      0.517389
O     10.54374      3.58206     12.47271         0.081137      0.159416     -0.395665
O     10.43466     17.39634     12.47271        -0.100957     -0.116480     -0.353307
O      8.50569     10.43466      3.58206         0.414642     -0.021956      0.076067
O      8.50569     10.54374     17.39634         0.470107      0.059488     -0.124757
O     12.47271     10.54374      3.58206        -0.501470     -0.009708      0.093327
O     12.47271     10.43466     17.39634        -0.415268     -0.054148     -0.102711
O      3.58206      8.50569     10.43466         0.165195      0.424046     -0.056286
O     17.39634      8.50569     10.54374        -0.088943      0.563334      0.048616
O      3.58206     12.47271     10.54374         0.048913     -0.534742      0.038818
O     17.39634     12.47271     10.43466        -0.174518     -0.453044     -0.025227
O      3.58206     10.43466      8.50569         0.188752     -0.014381      0.494128
O     17.39634     10.54374      8.50569        -0.123785     -0.009196      0.458770
O      3.58206     10.54374     12.47271         0.178588      0.088997     -0.485024
O     17.39634     10.43466     12.47271        -0.190599     -0.081130     -0.525599
O     10.43466      8.50569      3.58206         0.047139      0.665670      0.270808
O     10.54374      8.50569     17.39634         0.056940      0.488056     -0.209113
O     10.54374     12.47271      3.58206        -0.019577     -0.633538      0.268082
O     10.43466     12.47271     17.39634        -0.033310     -0.524206     -0.218080
O      8.50569      3.58206     10.43466         0.516323      0.151666     -0.030872
O      8.50569     17.39634     10.54374         0.622704     -0.096155      0.045306
O     12.47271      3.58206     10.54374        -0.624896      0.101393      0.035196
O     12.47271     17.39634     10.43466        -0.483772     -0.138517     -0.017020
O     11.90042     11.90042     19.56718        -0.306955     -0.283768      0.271316
O     19.56718     19.56718     19.56718         0.315791      0.270351      0.290640
O     19.56718     11.90042     11.90042         0.324321     -0.307310     -0.235685
O     11.90042     19.56718     11.90042        -0.328639      0.280744     -0.223498
O      9.45224      1.03696      9.45224        -0.030673      0.061051     -0.065223
O      1.03696      9.45224      9.45224         0.037418     -0.079969     -0.058233
O      1.03696      1.03696      1.03696         0.034330      0.051379      0.131275
O      9.45224      9.45224      1.03696        -0.023875     -0.089379      0.134912
Zr     10.48920      2.52580     10.48920        -0.106740     -0.130772     -0.011438
Zr     10.48920     18.45260     10.48920         0.109160      0.189021     -0.102508
Zr     10.48920     10.48920      2.52580        -0.009010      0.112298     -0.321499
Zr     10.48920     10.48920     18.45260        -0.034873     -0.015136      0.144152
Zr      2.52580     10.48920     10.48920        -0.049831     -0.029308     -0.050025
Zr     18.45260     10.48920     10.48920         0.089247      0.109101     -0.143577
Pd     12.90907      8.09234      7.60955        -0.011282     -0.006645     -0.002060
Pd      9.57519     14.56752     11.75459        -0.000169     -0.008407      0.002487
Pd     12.30376     10.86625     10.41460         0.005545     -0.000565     -0.011767
Pd     14.63123      9.94872     11.58377        -0.004562      0.006271     -0.008821
Pd     10.91429      9.33281      6.10596        -0.008824      0.005357      0.002868
Pd      6.88475      8.54890      8.97303        -0.010700      0.001020      0.003788
Ir     10.24281     11.83977     11.74995         0.002070      0.008593      0.013564
Ir     12.87445      8.26056     10.28979        -0.001510      0.003427     -0.003756
Ir     12.27973     10.96995      7.71360         0.002449     -0.007857     -0.007415
Ir      9.68298     14.38620      9.16283         0.008474      0.008919      0.001480
Ir     10.76334      9.16921     11.69486        -0.000444     -0.006689      0.011171
Ir      8.66201     10.08466      7.75053        -0.001455     -0.012621     -0.009412
Ir     13.85402     12.48735      9.04135         0.007713      0.002297      0.002465
Ir     11.96387     13.55302      7.82271         0.000505      0.006001     -0.014144
Ir     14.27321      9.87629      9.00378        -0.007625     -0.007010     -0.006205
Ir      9.16458      7.43988     10.35925         0.003120      0.005266      0.015264
Ir      8.15212     12.77062      7.83102        -0.003593      0.016295     -0.005689
Ir      9.10735      7.60811      7.79611        -0.011052     -0.000335      0.002081
Ir     11.85941     13.48422     13.02422         0.008028     -0.001949     -0.006520
Ir     11.34208      6.66900     11.68150        -0.004908      0.013407      0.000453
Ir     10.22873     11.81456      9.07341         0.004077     -0.002096     -0.008792
Ir     12.85708      8.29885     12.94880        -0.002428     -0.003861     -0.007118
Ir     10.78236      9.15214      8.95911         0.006019     -0.005955      0.001595
Ir     11.79078     13.56656     10.41734        -0.004622      0.006577     -0.006156
Ir     13.82858     12.56988     11.77617        -0.001646      0.007345      0.000348
Ir     12.35589     10.95825     13.07653        -0.000124     -0.004645     -0.002687
Ir     10.09979     11.72279      6.48755        -0.002016      0.003723     -0.013144
Ir     11.27790      6.57047      9.18220        -0.011189     -0.002456      0.004755
Ir      7.15963      8.36784     11.78702         0.012465      0.002593     -0.002171
Ir      8.16594     12.71119     10.43043        -0.002042      0.001826      0.010549
Ir     10.84979      9.25301     14.25502        -0.006372     -0.000798     -0.013056
Ir      8.07143     12.53387     12.98512         0.009703      0.005971     -0.011743
Ir      6.54154     11.28683      9.05695        -0.002378      0.004512      0.004244
Ir      8.62622     10.04297     13.03921         0.004690      0.000056     -0.003792
Ir      6.54914     10.91867     11.51976         0.004484      0.000307     -0.005571
Ir      9.09752      7.46307     13.02447        -0.003372      0.003129     -0.010879
Ir     10.17811     11.64804     14.35457         0.006651      0.003935     -0.012338
Ir      8.68791     10.06490     10.38775        -0.015537     -0.001955      0.008055
