152
# total energy = -1061.37101803 eVH     10.35389      5.87395      7.64558        -0.146829      0.132133      0.996335
H     10.62451     15.10445      7.64558         0.235335     -0.074033      0.834676
H     10.62451      5.87395     13.33282        -0.146459      0.084781     -0.505986
H     10.35389     15.10445     13.33282         0.068913     -0.225174     -0.427561
H      7.64558     10.35389      5.87395         0.856668      0.102577      0.206209
H      7.64558     10.62451     15.10445         0.191861     -0.002758     -0.065442
H     13.33282     10.62451      5.87395        -0.637124     -0.022611      0.172698
H     13.33282     10.35389     15.10445        -0.331659     -0.083548     -0.052506
H      5.87395      7.64558     10.35389         0.138450      0.363567     -0.037942
H     15.10445      7.64558     10.62451        -0.134168      0.603154      0.261523
H      5.87395     13.33282     10.62451         0.131641     -0.558585      0.010270
H     15.10445     13.33282     10.35389        -0.239173     -0.446838      0.105283
H      5.87395     10.35389      7.64558         0.198934      0.198673      0.377022
H     15.10445     10.62451      7.64558        -0.175186     -0.176377      0.500134
H      5.87395     10.62451     13.33282         0.032393      0.133021     -0.724807
H     15.10445     10.35389     13.33282         0.093965     -0.288153     -0.727363
H     10.35389      7.64558      5.87395        -0.091118      0.434710      0.251340
H     10.62451      7.64558     15.10445         0.419605      0.709860     -0.104725
H     10.62451     13.33282      5.87395         0.230768     -0.582734      0.116553
H     10.35389     13.33282     15.10445         0.170765     -0.677010     -0.076780
H      7.64558      5.87395     10.35389         0.434733      0.156365     -0.062626
H      7.64558     15.10445     10.62451         0.449690     -0.168576      0.343674
H     13.33282      5.87395     10.62451        -0.360508      0.148607     -0.050240
H     13.33282     15.10445     10.35389        -0.546867     -0.247246      0.150579
H     12.45634     12.45634     19.01126         0.239205      0.264628     -0.241335
H     19.01126     19.01126     19.01126        -0.256752     -0.264791     -0.227823
H     19.01126     12.45634     12.45634        -0.232263      0.268621      0.242082
H     12.45634     19.01126     12.45634         0.286287     -0.211289      0.246750
C     10.35284      5.61067      6.59456         0.307663     -0.294778     -0.904169
C     10.62556     15.36773      6.59456        -0.167026      0.672295     -0.370135
C     10.62556      5.61067     14.38384         0.267593     -0.344660      0.513822
C     10.35284     15.36773     14.38384        -0.127318      0.268993      0.365991
C      6.59456     10.35284      5.61067        -0.798794     -0.148267     -0.215323
C      6.59456     10.62556     15.36773        -0.554899      0.061878      0.348894
C     14.38384     10.62556      5.61067         0.949696     -0.011696     -0.544209
C     14.38384     10.35284     15.36773         0.275651     -0.089290      0.372094
C      5.61067      6.59456     10.35284        -0.375614     -0.460146      0.040355
C     15.36773      6.59456     10.62556         0.270046     -0.699814     -0.152344
C      5.61067     14.38384     10.62556        -0.181076      0.593837     -0.249044
C     15.36773     14.38384     10.35284         0.380652      0.820674     -0.120806
C      5.61067     10.35284      6.59456        -0.261166     -0.130835     -0.199568
C     15.36773     10.62556      6.59456         0.212202      0.172679     -0.420719
C      5.61067     10.62556     14.38384        -0.364038     -0.021733      1.230587
C     15.36773     10.35284     14.38384         0.277096     -0.035925      0.993875
C     10.35284      6.59456      5.61067         0.043494     -0.313540     -0.453913
C     10.62556      6.59456     15.36773        -0.045020     -0.882850      0.265232
C     10.62556     14.38384      5.61067        -0.398036      0.009383     -0.801244
C     10.35284     14.38384     15.36773        -0.230825      0.904282      0.234689
C      6.59456      5.61067     10.35284        -0.401126     -0.288520      0.178972
C      6.59456     15.36773     10.62556        -0.526921      0.532951      0.026430
C     14.38384      5.61067     10.62556         0.406411     -0.315354      0.071460
C     14.38384     15.36773     10.35284         0.830718      0.284462     -0.066030
C     10.40319      3.19606      7.29314        -0.001045      0.622821     -0.321978
C     10.35913      4.25547      6.23373         0.000227     -0.479349      0.418286
C      0.08601      7.29314      7.29314        -0.022110     -0.829025     -0.469511
C      0.13007      6.23373      6.23373        -0.153703      0.855937      0.134623
C      0.08601      3.19606      3.19606        -0.012155      0.371611      0.377628
C      0.13007      4.25547      4.25547         0.069825     -0.163476     -0.640986
C     10.40319      7.29314      3.19606        -0.047029     -1.095903      0.868035
C     10.35913      6.23373      4.25547         0.013214      0.335924     -0.178097
C      7.29314     10.40319      3.19606        -1.084174     -0.071737      0.361404
C      6.23373     10.35913      4.25547         0.279763      0.030248     -0.621381
C      7.29314      0.08601      7.29314        -0.954634     -0.002640     -0.404620
C      6.23373      0.13007      6.23373         0.211899      0.022173      0.116444
C      3.19606      0.08601      3.19606         0.334693     -0.004179      0.377491
C      4.25547      0.13007      4.25547        -0.276782     -0.046159     -0.160708
C      3.19606     10.40319      7.29314         0.489915     -0.047517     -1.075070
C      4.25547     10.35913      6.23373        -0.300439     -0.051191      0.128600
C      3.19606      7.29314     10.40319         0.860150     -0.507385      0.011116
C      4.25547      6.23373     10.35913        -0.129632      0.163201     -0.001130
C      7.29314      7.29314      0.08601        -0.412997     -0.271152     -0.006082
C      6.23373      6.23373      0.13007         0.242259      0.071127     -0.140871
C      3.19606      3.19606      0.08601         0.330988      0.698748     -0.009611
C      4.25547      4.25547      0.13007        -0.371025     -0.222200      0.054013
C      7.29314      3.19606     10.40319        -0.214032      0.558670      0.020319
C      6.23373      4.25547     10.35913         0.051664     -0.263485      0.011632
O     10.43466      3.58206      8.50569        -0.018958      0.117552      0.344134
O     10.54374     17.39634      8.50569         0.060927      0.039054      0.313493
O     10.54374      3.58206     12.47271         0.042376      0.199091     -0.568989
O     10.43466     17.39634     12.47271         0.031828     -0.008085     -0.461389
O      8.50569     10.43466      3.58206         0.731510     -0.073618      0.066423
O      8.50569     10.54374     17.39634         0.919411      0.030662     -0.161028
O     12.47271     10.54374      3.58206        -0.349683      0.045294      0.066688
O     12.47271     10.43466     17.39634        -0.345487     -0.025138      0.065266
O      3.58206      8.50569     10.43466        -0.033278      0.388598     -0.082888
O     17.39634      8.50569     10.54374        -0.117802      0.429313      0.033183
O      3.58206     12.47271     10.54374         0.130562     -0.710603     -0.011300
O     17.39634     12.47271     10.43466        -0.247484     -0.665876     -0.013976
O      3.58206     10.43466      8.50569         0.134287     -0.042936      0.830094
O     17.39634     10.54374      8.50569         0.040258      0.044817      0.283120
O      3.58206     10.54374     12.47271         0.070316      0.019429     -0.445152
O     17.39634     10.43466     12.47271        -0.009356      0.016271     -0.310993
O     10.43466      8.50569      3.58206        -0.067861      0.570761     -0.087870
O     10.54374      8.50569     17.39634         0.023250      0.854784     -0.185281
O     10.54374     12.47271      3.58206         0.058886     -0.365718      0.089586
O     10.43466     12.47271     17.39634        -0.062488     -0.671087     -0.210478
O      8.50569      3.58206     10.43466         0.344859      0.065846     -0.052452
O      8.50569     17.39634     10.54374         0.504447     -0.132825      0.014856
O     12.47271      3.58206     10.54374        -0.396581      0.092206      0.025931
O     12.47271     17.39634     10.43466        -0.692979     -0.098600      0.063207
O     11.90042     11.90042     19.56718        -0.249162     -0.278798      0.227171
O     19.56718     19.56718     19.56718         0.288504      0.301547      0.247278
O     19.56718     11.90042     11.90042         0.234868     -0.298531     -0.288263
O     11.90042     19.56718     11.90042        -0.284408      0.179174     -0.256970
O      9.45224      1.03696      9.45224        -0.121795      0.115677     -0.082077
O      1.03696      9.45224      9.45224         0.150471     -0.134371     -0.158449
O      1.03696      1.03696      1.03696         0.139965      0.198239     -0.011714
O      9.45224      9.45224      1.03696        -0.208961     -0.168914      0.047272
Zr     10.48920      2.52580     10.48920         0.010108     -0.245802      0.186397
Zr     10.48920     18.45260     10.48920        -0.243950      0.256070     -0.252261
Zr     10.48920     10.48920      2.52580         0.273654      0.454827     -0.217078
Zr     10.48920     10.48920     18.45260         0.040974     -0.050571      0.493807
Zr      2.52580     10.48920     10.48920        -0.545938      0.061206      0.361222
Zr     18.45260     10.48920     10.48920         0.266812     -0.156577      0.031643
Pd      9.08959     14.48413      9.20969        -0.016295      0.029240     -0.037372
Pd      8.36562     13.25378     13.74604         0.000842     -0.020755      0.037730
Pd     11.97984     14.23110      8.77187         0.069095     -0.000214     -0.028978
Pd     12.28752     12.75460     10.90830        -0.011709      0.060874     -0.007953
Pd     11.86177      7.10976     12.07392        -0.011675     -0.072359     -0.014003
Pd     10.98719     15.29511     11.02469         0.081816      0.037137     -0.003835
Pd      9.62384     13.05294     11.41176        -0.029624      0.014647      0.036171
Pd     13.95445     12.53256      8.21041         0.016895     -0.043550     -0.024915
Pd     11.67550     11.72408      6.79675         0.023843      0.045057      0.005744
Pd      7.54341      8.50297      7.26512        -0.018734     -0.017646      0.012801
Pd      8.74135     11.96418      6.88416         0.037696     -0.021323      0.014262
Pd      9.82353      9.81571      8.05885         0.012366      0.023982     -0.051315
Pd      8.49145     14.61506      6.55587         0.023759      0.011379     -0.033268
Pd     12.15946      9.02853      6.94973         0.023712     -0.037838     -0.047311
Pd     10.06050      9.96971      5.43172        -0.046096     -0.034987      0.029681
Pd      6.93198      9.15915     12.23812         0.012870      0.020387     -0.053491
Pd     12.42540      6.51019      7.81849        -0.015051     -0.003782     -0.013864
Pd      5.62213     10.56857     10.03847        -0.002775      0.029002      0.034021
Pd      7.66450      6.64300     12.91460         0.016885      0.056756     -0.090992
Ir     11.29944      9.57535     12.96228        -0.030216      0.072627      0.017511
Ir     13.10807      9.25107     11.23448        -0.065461     -0.082538     -0.176156
Ir      9.16425      8.47801     13.89057         0.045182      0.053380     -0.144349
Ir     10.24896     10.45764     15.16188         0.010589     -0.026799     -0.100422
Ir      7.08455     11.83370     11.80676         0.008528     -0.001798      0.004630
Ir     14.50046     11.12458     10.43327         0.005211      0.043020     -0.066193
Ir     12.35823     10.59617      9.15185         0.032043     -0.093389      0.069420
Ir      8.92009     10.81417     12.94193         0.080883     -0.051502      0.022160
Ir     10.06397     10.25982     10.69764        -0.055563      0.005386      0.007364
Ir     13.31074     11.27349     12.68895         0.013249      0.000269      0.064152
Ir     11.10289     12.07052     13.40367        -0.059101     -0.021088     -0.032328
Ir      8.00259     11.65230      9.50261        -0.004597      0.066298     -0.024717
Ir     11.35436      8.13347      9.59613         0.066203      0.058957      0.033918
Ir      6.94082     13.35707      8.19987        -0.021294      0.024587      0.100603
Ir      9.16588      7.24187      8.90401        -0.061879      0.023264      0.042718
Ir      7.82060      9.14537      9.78802         0.012744     -0.040806     -0.020468
Ir     10.41914     12.25974      8.99013        -0.100756      0.002621      0.015032
Ir      9.38186      7.86961     11.38391        -0.032179      0.017734      0.004936
Ir     13.81906      8.44889      8.94100        -0.088815     -0.008656     -0.017529
