152
# total energy = -1110.37196414 eVH     10.35389      5.87395      7.64558        -0.349592     -0.148414      1.052232
H     10.62451     15.10445      7.64558         0.370307      0.085140      0.943491
H     10.62451      5.87395     13.33282        -0.315322     -0.706494     -1.397400
H     10.35389     15.10445     13.33282        -0.625705      0.397244     -0.326776
H      7.64558     10.35389      5.87395         0.541321     -0.534565     -0.085348
H      7.64558     10.62451     15.10445         0.366966     -0.241775      0.042872
H     13.33282     10.62451      5.87395        -0.540559      0.622292     -0.026432
H     13.33282     10.35389     15.10445        -0.528453      0.410413      0.161652
H      5.87395      7.64558     10.35389         0.144546      0.517094      0.034268
H     15.10445      7.64558     10.62451         0.430358      0.908381      0.259977
H      5.87395     13.33282     10.62451        -0.226559     -0.464171      0.363081
H     15.10445     13.33282     10.35389         0.030142     -0.308062     -0.388539
H      5.87395     10.35389      7.64558        -0.075591     -0.359325      1.435752
H     15.10445     10.62451      7.64558         0.209371      0.442769      1.279943
H      5.87395     10.62451     13.33282        -0.170351     -0.349597     -1.155304
H     15.10445     10.35389     13.33282         0.552733      0.905146     -1.517364
H     10.35389      7.64558      5.87395        -0.541294      0.499773     -0.187501
H     10.62451      7.64558     15.10445        -0.139227      0.521456      0.190118
H     10.62451     13.33282      5.87395         0.893762     -1.390794     -0.325765
H     10.35389     13.33282     15.10445         0.271108     -0.552974     -0.080837
H      7.64558      5.87395     10.35389         0.718037      0.172923     -0.148988
H      7.64558     15.10445     10.62451         1.976699      0.794802      0.203985
H     13.33282      5.87395     10.62451        -2.691745     -0.968360     -0.451519
H     13.33282     15.10445     10.35389        -0.874033     -0.046021     -0.251608
H     12.45634     12.45634     19.01126         0.271815      0.257475     -0.227515
H     19.01126     19.01126     19.01126        -0.266846     -0.255144     -0.238429
H     19.01126     12.45634     12.45634        -0.282865      0.280667      0.186825
H     12.45634     19.01126     12.45634         0.255946     -0.251888      0.235863
C     10.35284      5.61067      6.59456         0.089847     -0.503142     -1.243841
C     10.62556     15.36773      6.59456         0.166714      0.763871     -0.832011
C     10.62556      5.61067     14.38384         0.178011     -0.321306      1.812612
C     10.35284     15.36773     14.38384         0.112346      0.390964      1.807629
C      6.59456     10.35284      5.61067        -1.126058     -0.111372     -0.855252
C      6.59456     10.62556     15.36773        -0.686281     -0.104345      0.749772
C     14.38384     10.62556      5.61067         0.873033     -0.112895     -1.001221
C     14.38384     10.35284     15.36773         1.203658      0.165834      1.103743
C      5.61067      6.59456     10.35284        -0.679838     -0.838164     -0.171704
C     15.36773      6.59456     10.62556         1.959041     -0.223037     -0.181730
C      5.61067     14.38384     10.62556        -1.577226     -0.006448     -0.120735
C     15.36773     14.38384     10.35284         0.486450      0.061599      0.022264
C      5.61067     10.35284      6.59456        -0.274395      0.196731     -1.346642
C     15.36773     10.62556      6.59456         0.281450     -0.217623     -1.000238
C      5.61067     10.62556     14.38384        -0.269074      0.402058      1.433172
C     15.36773     10.35284     14.38384         0.060864     -0.436097      1.914833
C     10.35284      6.59456      5.61067        -0.190652     -0.903733     -0.687814
C     10.62556      6.59456     15.36773        -0.104101     -0.787436      1.052581
C     10.62556     14.38384      5.61067        -0.490767      2.030904     -0.782829
C     10.35284     14.38384     15.36773        -0.286010      1.447725      0.479284
C      6.59456      5.61067     10.35284        -0.963460     -0.412435      0.081473
C      6.59456     15.36773     10.62556        -1.320375      0.363712     -0.330288
C     14.38384      5.61067     10.62556         1.291217     -1.205102      0.170533
C     14.38384     15.36773     10.35284         0.422058      0.315730      0.063455
C     10.40319      3.19606      7.29314         0.002498      0.309010     -0.100854
C     10.35913      4.25547      6.23373         0.138185     -0.523367      0.021941
C      0.08601      7.29314      7.29314        -0.053475     -0.304002     -0.428268
C      0.13007      6.23373      6.23373        -0.124872      0.715720      0.035377
C      0.08601      3.19606      3.19606        -0.108330      1.626384      0.172751
C      0.13007      4.25547      4.25547        -0.085276     -0.405805     -1.241884
C     10.40319      7.29314      3.19606         0.016745     -0.428438      0.127493
C     10.35913      6.23373      4.25547         0.260396      0.080378     -0.498048
C      7.29314     10.40319      3.19606        -1.663292      0.006241      0.325931
C      6.23373     10.35913      4.25547         0.652832      0.075985     -0.608733
C      7.29314      0.08601      7.29314        -0.401434     -0.011598     -0.302842
C      6.23373      0.13007      6.23373         0.656292     -0.054500      0.269010
C      3.19606      0.08601      3.19606         0.659374     -0.016453      0.187742
C      4.25547      0.13007      4.25547        -0.374749     -0.069914     -0.511158
C      3.19606     10.40319      7.29314         0.374465      0.018303     -0.317117
C      4.25547     10.35913      6.23373        -0.723686      0.062900      0.368120
C      3.19606      7.29314     10.40319         0.299870     -0.215392     -0.006620
C      4.25547      6.23373     10.35913         0.049763      0.647426      0.092398
C      7.29314      7.29314      0.08601        -0.718134     -0.601070     -0.018566
C      6.23373      6.23373      0.13007         0.842968      1.134140     -0.076650
C      3.19606      3.19606      0.08601         0.811649      0.495115      0.010512
C      4.25547      4.25547      0.13007        -0.322832     -1.730276     -0.127175
C      7.29314      3.19606     10.40319        -0.331718      0.277061     -0.003584
C      6.23373      4.25547     10.35913         0.514866     -0.032256      0.230096
O     10.43466      3.58206      8.50569        -0.047909      0.181539      0.258434
O     10.54374     17.39634      8.50569         0.041836     -0.232294      0.484719
O     10.54374      3.58206     12.47271         0.084609     -0.060158     -0.040588
O     10.43466     17.39634     12.47271        -0.023243     -0.140433     -0.277983
O      8.50569     10.43466      3.58206         0.981676      0.183098      0.387340
O      8.50569     10.54374     17.39634         0.568895      0.083699     -0.227527
O     12.47271     10.54374      3.58206        -0.428746     -0.038619      0.188282
O     12.47271     10.43466     17.39634        -0.520867     -0.070568     -0.198330
O      3.58206      8.50569     10.43466         0.180773      0.435596     -0.030708
O     17.39634      8.50569     10.54374        -0.229074      0.713294      0.043056
O      3.58206     12.47271     10.54374         0.159678     -0.670431      0.024568
O     17.39634     12.47271     10.43466        -0.185269     -0.482330     -0.012791
O      3.58206     10.43466      8.50569         0.221677     -0.059796      0.400576
O     17.39634     10.54374      8.50569        -0.170461      0.036409      0.410591
O      3.58206     10.54374     12.47271         0.145030      0.020678     -0.307079
O     17.39634     10.43466     12.47271         0.068620     -0.050412     -0.087256
O     10.43466      8.50569      3.58206        -0.000470      0.277776      0.180126
O     10.54374      8.50569     17.39634         0.070860      0.438244     -0.181771
O     10.54374     12.47271      3.58206        -0.222254     -0.966275      0.346731
O     10.43466     12.47271     17.39634        -0.084490     -0.449001     -0.244943
O      8.50569      3.58206     10.43466         0.496617      0.195514     -0.012805
O      8.50569     17.39634     10.54374         0.660244     -0.196279      0.022236
O     12.47271      3.58206     10.54374        -0.738349      0.277855      0.036347
O     12.47271     17.39634     10.43466        -0.440982     -0.201525     -0.044414
O     11.90042     11.90042     19.56718        -0.345627     -0.307807      0.258935
O     19.56718     19.56718     19.56718         0.325554      0.310832      0.282048
O     19.56718     11.90042     11.90042         0.277791     -0.277930     -0.141188
O     11.90042     19.56718     11.90042        -0.306778      0.286972     -0.234188
O      9.45224      1.03696      9.45224        -0.057959      0.071053     -0.047886
O      1.03696      9.45224      9.45224         0.035526     -0.073509     -0.072642
O      1.03696      1.03696      1.03696         0.057308      0.139107      0.103856
O      9.45224      9.45224      1.03696        -0.132505     -0.089906      0.103658
Zr     10.48920      2.52580     10.48920         0.148283     -0.165818     -0.162344
Zr     10.48920     18.45260     10.48920        -0.094792      0.179453     -0.043696
Zr     10.48920     10.48920      2.52580         0.328259     -0.309507     -0.197376
Zr     10.48920     10.48920     18.45260         0.003954     -0.085398      0.206854
Zr      2.52580     10.48920     10.48920        -0.065780      0.166576     -0.051732
Zr     18.45260     10.48920     10.48920         0.137761     -0.124769     -0.248563
Ir     12.05437     12.48677     10.46148        -0.002358     -0.002937      0.020302
Ir     11.17410      7.41701     10.31218         0.021139      0.000165     -0.021043
Ir      8.81992      7.38364     11.57582         0.012584     -0.021649     -0.009141
Ir      7.48581     11.66131      7.65748        -0.005791     -0.006641      0.003031
Ir     11.59460     12.09293      7.12493         0.002172     -0.015122     -0.015021
Ir     13.74948      8.98323      7.55670         0.010110     -0.002868     -0.001975
Ir     12.49636     13.95452      8.42078        -0.004655      0.009063     -0.006880
Ir      9.71960     11.26631      5.56789         0.010422     -0.008956     -0.003236
Ir      9.08398     13.47231      7.07642        -0.003650     -0.003911     -0.006335
Ir      9.28435      9.66316      7.53141         0.003060      0.012225     -0.012619
Ir     13.26579      7.03858     11.95527         0.005717      0.008991     -0.000842
Ir     13.56762      7.03142      9.11992         0.018118      0.004904     -0.009999
Ir     11.02551      7.60515     12.85529         0.014441     -0.005492     -0.010472
Ir     13.61262     11.56022      8.75608         0.005327     -0.003014     -0.000492
Ir     11.50400      9.65515      6.23752        -0.002449     -0.001753     -0.007252
Ir      7.14739      9.18749      8.94416        -0.004891     -0.011134     -0.012740
Ir     14.06183     11.42446     11.66205        -0.008702      0.004675     -0.003768
Ir     11.65135      9.86627      8.89736         0.005685     -0.014224     -0.003194
Ir      9.42751      9.52426     10.25062         0.031884      0.022597     -0.011834
Ir     13.85976      9.39766     10.18899         0.005419      0.008774     -0.005650
Ir     13.80725      9.15472     12.91158         0.010939      0.001632     -0.007873
Ir     11.68466      9.76470     11.57089         0.009570      0.001602     -0.006559
Ir      9.91071     11.75605      8.97704        -0.003398     -0.039648      0.003998
Ir      9.04988      7.43808      8.83879         0.017729     -0.014479     -0.025230
Ir     11.53190      7.58223      7.78488         0.034611     -0.016950     -0.011875
Ir      9.24701      9.50007     13.02008         0.014064     -0.001164      0.004855
Ir      7.52601     13.92133      8.99319        -0.008981     -0.009269     -0.000138
Ir     10.90003     14.12169     11.94885        -0.007504     -0.010443     -0.000277
Ir     10.12507     14.17060      9.52315        -0.007080      0.011017      0.001027
Ir      9.79789     11.70467     11.72765         0.010563     -0.016751      0.003515
Ir      7.58821     11.59477     10.21323         0.006995     -0.008285     -0.006453
Ir      8.36909     13.76580     11.58691        -0.011001     -0.002851     -0.000785
Ir      7.52789     11.59402     12.83105         0.001110     -0.020484     -0.003276
Ir      9.76719     11.63410     14.34371         0.004025     -0.017845     -0.000350
Ir     13.49553     13.87836     12.19280        -0.010364      0.002698     -0.001100
Ir     11.99675     12.05729     13.08660        -0.004121     -0.003956     -0.012171
Ir     11.56972      9.81638     14.21068         0.002239     -0.008718     -0.009800
Ir      7.14292      9.39622     11.50367        -0.005897     -0.014296      0.001449
