152
# total energy = -1110.39354538 eVH     10.35389      5.87395      7.64558        -0.390052     -0.129522      1.155928
H     10.62451     15.10445      7.64558         0.326227      0.077650      0.917562
H     10.62451      5.87395     13.33282        -0.318497     -0.675917     -1.334690
H     10.35389     15.10445     13.33282        -0.585270      0.430475     -0.334842
H      7.64558     10.35389      5.87395         0.558250     -0.519985     -0.101653
H      7.64558     10.62451     15.10445         0.386406     -0.233884      0.043456
H     13.33282     10.62451      5.87395        -0.582242      0.647940     -0.049881
H     13.33282     10.35389     15.10445        -0.524932      0.385337      0.152698
H      5.87395      7.64558     10.35389         0.149336      0.557679      0.027341
H     15.10445      7.64558     10.62451         0.428101      1.026490      0.286740
H      5.87395     13.33282     10.62451        -0.220683     -0.504765      0.362077
H     15.10445     13.33282     10.35389         0.027902     -0.298971     -0.379700
H      5.87395     10.35389      7.64558        -0.105216     -0.414980      1.491238
H     15.10445     10.62451      7.64558         0.219831      0.517779      1.328994
H      5.87395     10.62451     13.33282        -0.219711     -0.370871     -1.207728
H     15.10445     10.35389     13.33282         0.613629      1.005862     -1.533463
H     10.35389      7.64558      5.87395        -0.587578      0.532456     -0.172202
H     10.62451      7.64558     15.10445        -0.133228      0.446928      0.155775
H     10.62451     13.33282      5.87395         0.868284     -1.325247     -0.312163
H     10.35389     13.33282     15.10445         0.222725     -0.562518     -0.107037
H      7.64558      5.87395     10.35389         0.721864      0.162784     -0.175501
H      7.64558     15.10445     10.62451         1.981191      0.746637      0.224884
H     13.33282      5.87395     10.62451        -2.651499     -0.900034     -0.518062
H     13.33282     15.10445     10.35389        -0.877499     -0.056898     -0.252490
H     12.45634     12.45634     19.01126         0.271963      0.257862     -0.227418
H     19.01126     19.01126     19.01126        -0.266780     -0.254761     -0.238776
H     19.01126     12.45634     12.45634        -0.284140      0.281757      0.184739
H     12.45634     19.01126     12.45634         0.256512     -0.250606      0.235740
C     10.35284      5.61067      6.59456         0.076792     -0.481253     -1.201575
C     10.62556     15.36773      6.59456         0.192970      0.753758     -0.810747
C     10.62556      5.61067     14.38384         0.179833     -0.294417      1.784289
C     10.35284     15.36773     14.38384         0.084604      0.383036      1.792037
C      6.59456     10.35284      5.61067        -1.138434     -0.110582     -0.899277
C      6.59456     10.62556     15.36773        -0.701926     -0.094382      0.797920
C     14.38384     10.62556      5.61067         0.834626     -0.111543     -0.988741
C     14.38384     10.35284     15.36773         1.175322      0.168342      1.096639
C      5.61067      6.59456     10.35284        -0.668310     -0.903546     -0.189275
C     15.36773      6.59456     10.62556         2.012690     -0.327827     -0.187808
C      5.61067     14.38384     10.62556        -1.568432     -0.013863     -0.142027
C     15.36773     14.38384     10.35284         0.484564      0.091432     -0.000655
C      5.61067     10.35284      6.59456        -0.274805      0.214700     -1.354747
C     15.36773     10.62556      6.59456         0.296650     -0.268338     -0.978424
C      5.61067     10.62556     14.38384        -0.256294      0.449127      1.458416
C     15.36773     10.35284     14.38384         0.000237     -0.491815      1.944613
C     10.35284      6.59456      5.61067        -0.157913     -0.844545     -0.700330
C     10.62556      6.59456     15.36773        -0.118748     -0.712335      1.044231
C     10.62556     14.38384      5.61067        -0.501162      1.985537     -0.751386
C     10.35284     14.38384     15.36773        -0.258007      1.353777      0.503859
C      6.59456      5.61067     10.35284        -0.990888     -0.409209      0.095402
C      6.59456     15.36773     10.62556        -1.253871      0.369316     -0.333258
C     14.38384      5.61067     10.62556         1.269476     -1.304336      0.221306
C     14.38384     15.36773     10.35284         0.458710      0.309940      0.087275
C     10.40319      3.19606      7.29314         0.001176      0.304940     -0.112296
C     10.35913      4.25547      6.23373         0.142232     -0.580187      0.016676
C      0.08601      7.29314      7.29314        -0.053458     -0.278289     -0.419273
C      0.13007      6.23373      6.23373        -0.123755      0.666714      0.016137
C      0.08601      3.19606      3.19606        -0.105545      1.664999      0.165164
C      0.13007      4.25547      4.25547        -0.098208     -0.391244     -1.205014
C     10.40319      7.29314      3.19606         0.015888     -0.451477      0.121390
C     10.35913      6.23373      4.25547         0.264230      0.087331     -0.537679
C      7.29314     10.40319      3.19606        -1.698865      0.011350      0.324843
C      6.23373     10.35913      4.25547         0.671825      0.081098     -0.623688
C      7.29314      0.08601      7.29314        -0.411116     -0.015667     -0.318342
C      6.23373      0.13007      6.23373         0.730906     -0.058685      0.244340
C      3.19606      0.08601      3.19606         0.661195     -0.018557      0.179729
C      4.25547      0.13007      4.25547        -0.355798     -0.086480     -0.574796
C      3.19606     10.40319      7.29314         0.348657      0.023821     -0.320077
C      4.25547     10.35913      6.23373        -0.741906      0.079421      0.362498
C      3.19606      7.29314     10.40319         0.284496     -0.202065     -0.006557
C      4.25547      6.23373     10.35913         0.041993      0.632485      0.091615
C      7.29314      7.29314      0.08601        -0.715435     -0.609888     -0.028405
C      6.23373      6.23373      0.13007         0.904037      1.124164     -0.065148
C      3.19606      3.19606      0.08601         0.824695      0.514927      0.000412
C      4.25547      4.25547      0.13007        -0.325414     -1.769140     -0.130673
C      7.29314      3.19606     10.40319        -0.324462      0.270645     -0.004563
C      6.23373      4.25547     10.35913         0.508771     -0.020560      0.231198
O     10.43466      3.58206      8.50569        -0.048654      0.187351      0.259973
O     10.54374     17.39634      8.50569         0.042283     -0.236653      0.486704
O     10.54374      3.58206     12.47271         0.083939     -0.076581     -0.021614
O     10.43466     17.39634     12.47271        -0.023189     -0.141599     -0.268131
O      8.50569     10.43466      3.58206         0.993447      0.190503      0.376053
O      8.50569     10.54374     17.39634         0.580467      0.084380     -0.229737
O     12.47271     10.54374      3.58206        -0.412748     -0.041003      0.181286
O     12.47271     10.43466     17.39634        -0.505695     -0.067353     -0.192583
O      3.58206      8.50569     10.43466         0.184670      0.422785     -0.028702
O     17.39634      8.50569     10.54374        -0.230390      0.712293      0.046446
O      3.58206     12.47271     10.54374         0.162248     -0.682664      0.026430
O     17.39634     12.47271     10.43466        -0.186842     -0.474570     -0.010232
O      3.58206     10.43466      8.50569         0.231874     -0.061996      0.406703
O     17.39634     10.54374      8.50569        -0.172044      0.037388      0.412849
O      3.58206     10.54374     12.47271         0.148608      0.021425     -0.303905
O     17.39634     10.43466     12.47271         0.082117     -0.051873     -0.069571
O     10.43466      8.50569      3.58206         0.005374      0.273540      0.183830
O     10.54374      8.50569     17.39634         0.069529      0.425458     -0.173829
O     10.54374     12.47271      3.58206        -0.221952     -0.975192      0.328722
O     10.43466     12.47271     17.39634        -0.082032     -0.451339     -0.245388
O      8.50569      3.58206     10.43466         0.488448      0.197528     -0.009729
O      8.50569     17.39634     10.54374         0.664921     -0.204041      0.022434
O     12.47271      3.58206     10.54374        -0.747617      0.280933      0.038414
O     12.47271     17.39634     10.43466        -0.431890     -0.206234     -0.043521
O     11.90042     11.90042     19.56718        -0.347283     -0.307200      0.261201
O     19.56718     19.56718     19.56718         0.324042      0.311651      0.284358
O     19.56718     11.90042     11.90042         0.274313     -0.273372     -0.138006
O     11.90042     19.56718     11.90042        -0.305233      0.282812     -0.233071
O      9.45224      1.03696      9.45224        -0.061586      0.073382     -0.044815
O      1.03696      9.45224      9.45224         0.035801     -0.075839     -0.069827
O      1.03696      1.03696      1.03696         0.064081      0.150888      0.094880
O      9.45224      9.45224      1.03696        -0.144200     -0.099223      0.095290
Zr     10.48920      2.52580     10.48920         0.164997     -0.174104     -0.168530
Zr     10.48920     18.45260     10.48920        -0.101643      0.188100     -0.051422
Zr     10.48920     10.48920      2.52580         0.345505     -0.310624     -0.206048
Zr     10.48920     10.48920     18.45260         0.015842     -0.088786      0.199354
Zr      2.52580     10.48920     10.48920        -0.072392      0.180507     -0.052509
Zr     18.45260     10.48920     10.48920         0.147747     -0.133416     -0.253350
Ir     12.03755     12.48267     10.45404        -0.006480      0.002411      0.004369
Ir     11.22169      7.41272     10.23677         0.007501     -0.000722     -0.019338
Ir      8.85867      7.34639     11.51783         0.003388     -0.004461     -0.014563
Ir      7.45827     11.64761      7.65765        -0.007718     -0.000939     -0.000676
Ir     11.59593     12.07002      7.11100         0.000642     -0.005727     -0.004478
Ir     13.78738      8.99371      7.51787         0.003489     -0.000582     -0.008343
Ir     12.46955     13.95141      8.40571        -0.002864      0.000238     -0.004332
Ir      9.74171     11.25354      5.53647         0.002993     -0.000788     -0.008411
Ir      9.07365     13.43904      7.07736        -0.001109     -0.008934      0.001487
Ir      9.26344      9.67485      7.49579        -0.006487      0.001879     -0.005638
Ir     13.28632      7.03416     11.96086        -0.001129     -0.003133      0.004355
Ir     13.64516      7.04279      9.10579         0.012082      0.002881     -0.006050
Ir     11.04516      7.58926     12.79289        -0.000088     -0.003801     -0.013873
Ir     13.59609     11.56425      8.75006        -0.001635     -0.003713     -0.003481
Ir     11.50127      9.61792      6.21640         0.000170     -0.009844     -0.005866
Ir      7.16218      9.14310      8.91721         0.004546     -0.006314     -0.003713
Ir     14.06102     11.44028     11.64464         0.002395     -0.000085     -0.004222
Ir     11.66160      9.82141      8.85552         0.006525     -0.013866     -0.010834
Ir      9.44524      9.49722     10.22220        -0.001599     -0.008604     -0.006449
Ir     13.88169      9.41378     10.16385         0.001489      0.001613     -0.008269
Ir     13.84121      9.16263     12.87516         0.008439     -0.002321     -0.010016
Ir     11.70471      9.75714     11.53400         0.007064     -0.003107     -0.009696
Ir      9.91816     11.72574      8.96066         0.001919      0.001269     -0.002772
Ir      9.11571      7.43439      8.76070         0.011049      0.004435     -0.015554
Ir     11.64842      7.51525      7.71374         0.024261     -0.014807     -0.014693
Ir      9.25609      9.46323     13.00066        -0.001099     -0.007289     -0.004378
Ir      7.50475     13.89807      8.99458        -0.001758     -0.001289     -0.000344
Ir     10.86044     14.09594     11.95294        -0.002497     -0.010009     -0.002038
Ir     10.11046     14.14236      9.51444         0.000407     -0.006951     -0.000972
Ir      9.79015     11.67499     11.72240        -0.000591     -0.000989     -0.001702
Ir      7.59110     11.55866     10.20522         0.002590     -0.005373     -0.001394
Ir      8.34238     13.73044     11.58143        -0.000633     -0.006181     -0.000948
Ir      7.52544     11.53682     12.82036         0.001033     -0.007467     -0.002483
Ir      9.78079     11.58475     14.34165         0.004706     -0.010400      0.000431
Ir     13.46271     13.88346     12.18516        -0.004061     -0.002414     -0.001477
Ir     11.98979     12.03979     13.07551         0.001170     -0.002656     -0.003504
Ir     11.58807      9.77396     14.17273         0.004752     -0.011894     -0.009261
Ir      7.15887      9.34179     11.47565         0.003552     -0.006637     -0.008087
