152
# total energy = -1110.37316256 eVH     10.35389      5.87395      7.64558        -0.350717     -0.147075      1.055762
H     10.62451     15.10445      7.64558         0.369468      0.084785      0.943803
H     10.62451      5.87395     13.33282        -0.316631     -0.705388     -1.395896
H     10.35389     15.10445     13.33282        -0.624262      0.400133     -0.327324
H      7.64558     10.35389      5.87395         0.540756     -0.533840     -0.085604
H      7.64558     10.62451     15.10445         0.367618     -0.241690      0.043270
H     13.33282     10.62451      5.87395        -0.542167      0.623156     -0.027231
H     13.33282     10.35389     15.10445        -0.527903      0.409360      0.161307
H      5.87395      7.64558     10.35389         0.145522      0.520305      0.034064
H     15.10445      7.64558     10.62451         0.429925      0.914648      0.260055
H      5.87395     13.33282     10.62451        -0.225846     -0.466903      0.362504
H     15.10445     13.33282     10.35389         0.030210     -0.307567     -0.388246
H      5.87395     10.35389      7.64558        -0.075933     -0.360120      1.436066
H     15.10445     10.62451      7.64558         0.210495      0.445857      1.282373
H      5.87395     10.62451     13.33282        -0.172445     -0.350633     -1.158772
H     15.10445     10.35389     13.33282         0.554016      0.906516     -1.516613
H     10.35389      7.64558      5.87395        -0.542093      0.500936     -0.186263
H     10.62451      7.64558     15.10445        -0.139499      0.518661      0.189171
H     10.62451     13.33282      5.87395         0.892756     -1.389587     -0.324999
H     10.35389     13.33282     15.10445         0.269494     -0.553385     -0.081658
H      7.64558      5.87395     10.35389         0.718448      0.173229     -0.150031
H      7.64558     15.10445     10.62451         1.978020      0.793164      0.204478
H     13.33282      5.87395     10.62451        -2.688410     -0.963212     -0.452662
H     13.33282     15.10445     10.35389        -0.874554     -0.046455     -0.251392
H     12.45634     12.45634     19.01126         0.271907      0.257550     -0.227579
H     19.01126     19.01126     19.01126        -0.266736     -0.255105     -0.238522
H     19.01126     12.45634     12.45634        -0.282764      0.280743      0.186766
H     12.45634     19.01126     12.45634         0.256017     -0.251785      0.235792
C     10.35284      5.61067      6.59456         0.089381     -0.502936     -1.243105
C     10.62556     15.36773      6.59456         0.166777      0.763594     -0.830764
C     10.62556      5.61067     14.38384         0.178882     -0.321565      1.811804
C     10.35284     15.36773     14.38384         0.111515      0.389972      1.807969
C      6.59456     10.35284      5.61067        -1.126369     -0.111030     -0.857046
C      6.59456     10.62556     15.36773        -0.687068     -0.104154      0.751874
C     14.38384     10.62556      5.61067         0.872083     -0.112589     -1.001831
C     14.38384     10.35284     15.36773         1.202640      0.165611      1.102157
C      5.61067      6.59456     10.35284        -0.678518     -0.841902     -0.172868
C     15.36773      6.59456     10.62556         1.961560     -0.227033     -0.181640
C      5.61067     14.38384     10.62556        -1.576997     -0.006167     -0.121632
C     15.36773     14.38384     10.35284         0.486727      0.063096      0.021389
C      5.61067     10.35284      6.59456        -0.275427      0.196316     -1.346378
C     15.36773     10.62556      6.59456         0.281568     -0.219440     -1.000595
C      5.61067     10.62556     14.38384        -0.267771      0.404438      1.435436
C     15.36773     10.35284     14.38384         0.059001     -0.436303      1.914978
C     10.35284      6.59456      5.61067        -0.188837     -0.900981     -0.687263
C     10.62556      6.59456     15.36773        -0.104583     -0.784262      1.053497
C     10.62556     14.38384      5.61067        -0.492050      2.029113     -0.783323
C     10.35284     14.38384     15.36773        -0.284860      1.444322      0.480177
C      6.59456      5.61067     10.35284        -0.964239     -0.412103      0.082076
C      6.59456     15.36773     10.62556        -1.318158      0.364852     -0.330181
C     14.38384      5.61067     10.62556         1.287743     -1.210378      0.171806
C     14.38384     15.36773     10.35284         0.423952      0.315474      0.064365
C     10.40319      3.19606      7.29314         0.002589      0.309073     -0.101339
C     10.35913      4.25547      6.23373         0.138416     -0.525317      0.021447
C      0.08601      7.29314      7.29314        -0.053348     -0.303388     -0.427654
C      0.13007      6.23373      6.23373        -0.124441      0.714731      0.034246
C      0.08601      3.19606      3.19606        -0.108131      1.626511      0.172630
C      0.13007      4.25547      4.25547        -0.084498     -0.404918     -1.241197
C     10.40319      7.29314      3.19606         0.016902     -0.428808      0.126932
C     10.35913      6.23373      4.25547         0.260470      0.081031     -0.499563
C      7.29314     10.40319      3.19606        -1.662681      0.006596      0.325346
C      6.23373     10.35913      4.25547         0.652608      0.075745     -0.608115
C      7.29314      0.08601      7.29314        -0.401786     -0.011645     -0.303521
C      6.23373      0.13007      6.23373         0.659440     -0.054435      0.268556
C      3.19606      0.08601      3.19606         0.659122     -0.016456      0.187578
C      4.25547      0.13007      4.25547        -0.374961     -0.070343     -0.513062
C      3.19606     10.40319      7.29314         0.373669      0.018613     -0.316908
C      4.25547     10.35913      6.23373        -0.722805      0.063421      0.367589
C      3.19606      7.29314     10.40319         0.299163     -0.215256     -0.006712
C      4.25547      6.23373     10.35913         0.049178      0.647805      0.092218
C      7.29314      7.29314      0.08601        -0.717062     -0.600966     -0.019032
C      6.23373      6.23373      0.13007         0.845468      1.133688     -0.076005
C      3.19606      3.19606      0.08601         0.812099      0.496026      0.010078
C      4.25547      4.25547      0.13007        -0.322486     -1.731720     -0.127601
C      7.29314      3.19606     10.40319        -0.331541      0.276945     -0.003628
C      6.23373      4.25547     10.35913         0.514369     -0.031766      0.230141
O     10.43466      3.58206      8.50569        -0.047880      0.181727      0.258409
O     10.54374     17.39634      8.50569         0.041943     -0.232209      0.484605
O     10.54374      3.58206     12.47271         0.084601     -0.060364     -0.040597
O     10.43466     17.39634     12.47271        -0.023259     -0.140403     -0.277605
O      8.50569     10.43466      3.58206         0.981379      0.183462      0.387311
O      8.50569     10.54374     17.39634         0.569473      0.083833     -0.227759
O     12.47271     10.54374      3.58206        -0.428432     -0.038626      0.188208
O     12.47271     10.43466     17.39634        -0.520193     -0.070379     -0.198216
O      3.58206      8.50569     10.43466         0.181155      0.435434     -0.030738
O     17.39634      8.50569     10.54374        -0.229213      0.713087      0.043117
O      3.58206     12.47271     10.54374         0.159895     -0.670950      0.024571
O     17.39634     12.47271     10.43466        -0.185196     -0.482031     -0.012774
O      3.58206     10.43466      8.50569         0.221868     -0.059804      0.400585
O     17.39634     10.54374      8.50569        -0.170521      0.036456      0.410555
O      3.58206     10.54374     12.47271         0.145273      0.020765     -0.306929
O     17.39634     10.43466     12.47271         0.068802     -0.050328     -0.087051
O     10.43466      8.50569      3.58206        -0.000182      0.278088      0.180344
O     10.54374      8.50569     17.39634         0.070886      0.438292     -0.181678
O     10.54374     12.47271      3.58206        -0.222226     -0.966396      0.346778
O     10.43466     12.47271     17.39634        -0.084382     -0.449077     -0.245115
O      8.50569      3.58206     10.43466         0.496496      0.195634     -0.012841
O      8.50569     17.39634     10.54374         0.660116     -0.196506      0.022103
O     12.47271      3.58206     10.54374        -0.738571      0.278061      0.036236
O     12.47271     17.39634     10.43466        -0.440461     -0.201611     -0.044455
O     11.90042     11.90042     19.56718        -0.345591     -0.307703      0.258902
O     19.56718     19.56718     19.56718         0.325556      0.310989      0.282040
O     19.56718     11.90042     11.90042         0.277780     -0.277771     -0.141276
O     11.90042     19.56718     11.90042        -0.306605      0.286982     -0.234232
O      9.45224      1.03696      9.45224        -0.057961      0.071206     -0.047891
O      1.03696      9.45224      9.45224         0.035671     -0.073390     -0.072669
O      1.03696      1.03696      1.03696         0.057495      0.139358      0.103562
O      9.45224      9.45224      1.03696        -0.132681     -0.089907      0.103439
Zr     10.48920      2.52580     10.48920         0.148904     -0.165947     -0.162363
Zr     10.48920     18.45260     10.48920        -0.094890      0.179507     -0.044028
Zr     10.48920     10.48920      2.52580         0.328517     -0.309258     -0.197939
Zr     10.48920     10.48920     18.45260         0.004335     -0.085596      0.206665
Zr      2.52580     10.48920     10.48920        -0.065963      0.167078     -0.051879
Zr     18.45260     10.48920     10.48920         0.138287     -0.124940     -0.248660
Ir     12.05403     12.48600     10.46150        -0.016127      0.009026      0.010963
Ir     11.17750      7.41710     10.31030         0.008541     -0.001809     -0.025002
Ir      8.82218      7.38090     11.57432         0.015131     -0.001985     -0.015149
Ir      7.48590     11.66057      7.65827        -0.004985     -0.005369      0.000133
Ir     11.59445     12.09245      7.12470        -0.002591     -0.010440     -0.007569
Ir     13.75076      8.98435      7.55622         0.014637      0.002299     -0.011898
Ir     12.49533     13.95491      8.42069        -0.009261      0.003178     -0.003695
Ir      9.72004     11.26612      5.56758         0.010565     -0.005060     -0.007225
Ir      9.08348     13.47243      7.07654        -0.001777     -0.012769      0.000918
Ir      9.28365      9.66341      7.53011        -0.004201      0.000140     -0.003610
Ir     13.26739      7.03851     11.95608         0.013540     -0.006172     -0.008266
Ir     13.57130      7.03264      9.11941         0.019668      0.000039     -0.002051
Ir     11.02747      7.60445     12.85378         0.002665     -0.004600     -0.010995
Ir     13.61231     11.56069      8.75588         0.002111     -0.000379     -0.003617
Ir     11.50370      9.65436      6.23700         0.001320     -0.007006     -0.001939
Ir      7.14727      9.18514      8.94282         0.012654     -0.012014     -0.000737
Ir     14.06193     11.42537     11.66141         0.001496      0.005411     -0.000455
Ir     11.65181      9.86505      8.89635         0.001481     -0.013152     -0.010354
Ir      9.42884      9.52377     10.24986         0.000079     -0.016108     -0.009987
Ir     13.86009      9.39908     10.18833         0.014181      0.001125     -0.003324
Ir     13.80766      9.15519     12.90995         0.017708      0.008905     -0.000372
Ir     11.68522      9.76453     11.56988         0.009978      0.000254     -0.006765
Ir      9.91000     11.75396      8.97694         0.004598     -0.005077     -0.006317
Ir      9.05340      7.43677      8.83609         0.016851      0.005779     -0.013056
Ir     11.53694      7.57996      7.78295         0.027949     -0.013676     -0.013952
Ir      9.24807      9.49863     13.01986         0.002497     -0.014637     -0.004187
Ir      7.52531     13.91996      8.99373        -0.006532     -0.008460      0.000804
Ir     10.89820     14.12024     11.94951        -0.006508     -0.015790     -0.008330
Ir     10.12435     14.16986      9.52339        -0.004234     -0.011861      0.002107
Ir      9.79750     11.70255     11.72791        -0.001248      0.005613     -0.001877
Ir      7.58770     11.59259     10.21360         0.003937     -0.009750     -0.001695
Ir      8.36748     13.76446     11.58729        -0.003705     -0.015794     -0.001685
Ir      7.52762     11.59141     12.83126         0.001068     -0.018172     -0.003708
Ir      9.76763     11.63254     14.34350         0.001701     -0.011362      0.005006
Ir     13.49423     13.87856     12.19261        -0.012363      0.002510     -0.000637
Ir     11.99645     12.05600     13.08563         0.000111      0.004729     -0.002441
Ir     11.56997      9.81541     14.20966         0.009219     -0.014062     -0.003262
Ir      7.14286      9.39326     11.50387         0.014219     -0.017672     -0.012455
