152
# total energy = -1060.11004177 eVH     10.35389      5.87395      7.64558        -0.278313      0.047831      1.123070
H     10.62451     15.10445      7.64558         0.100361     -0.087745      0.915694
H     10.62451      5.87395     13.33282        -0.262039      0.080066     -0.787717
H     10.35389     15.10445     13.33282         0.104358     -0.300564     -0.864532
H      7.64558     10.35389      5.87395         0.931417     -0.145094      0.190018
H      7.64558     10.62451     15.10445         0.322051     -0.031285     -0.073299
H     13.33282     10.62451      5.87395        -0.860786      0.197172      0.205040
H     13.33282     10.35389     15.10445        -0.280901     -0.015277     -0.066166
H      5.87395      7.64558     10.35389         0.087696      0.417974     -0.006008
H     15.10445      7.64558     10.62451        -0.011643      0.490212     -0.025175
H      5.87395     13.33282     10.62451        -0.012923     -0.958822      0.081127
H     15.10445     13.33282     10.35389        -0.093712     -0.323940      0.004872
H      5.87395     10.35389      7.64558         0.285262      0.109408      0.403265
H     15.10445     10.62451      7.64558        -0.123381     -0.169168      0.669413
H      5.87395     10.62451     13.33282        -0.084511      0.463264     -0.625582
H     15.10445     10.35389     13.33282         0.241700     -0.609146     -0.846429
H     10.35389      7.64558      5.87395        -0.037978      0.485252      0.335384
H     10.62451      7.64558     15.10445         0.264801      0.774126     -0.032726
H     10.62451     13.33282      5.87395         0.124692     -0.577002      0.211127
H     10.35389     13.33282     15.10445         0.040791     -0.290615     -0.144400
H      7.64558      5.87395     10.35389         0.350354      0.102862      0.034386
H      7.64558     15.10445     10.62451         0.382942     -0.119594      0.169680
H     13.33282      5.87395     10.62451        -0.316700      0.131578     -0.030039
H     13.33282     15.10445     10.35389        -0.652265     -0.132232      0.151512
H     12.45634     12.45634     19.01126         0.256318      0.271578     -0.227809
H     19.01126     19.01126     19.01126        -0.247353     -0.267489     -0.244781
H     19.01126     12.45634     12.45634        -0.250352      0.270025      0.235505
H     12.45634     19.01126     12.45634         0.290504     -0.235266      0.235043
C     10.35284      5.61067      6.59456         0.399231     -0.411371     -1.420311
C     10.62556     15.36773      6.59456        -0.161337      0.593673     -0.651731
C     10.62556      5.61067     14.38384         0.381087     -0.327874      0.833182
C     10.35284     15.36773     14.38384        -0.221820      0.236038      1.075199
C      6.59456     10.35284      5.61067        -1.375385      0.022933     -0.227090
C      6.59456     10.62556     15.36773        -0.634914      0.063275      0.361029
C     14.38384     10.62556      5.61067         1.315627     -0.170475     -0.636210
C     14.38384     10.35284     15.36773         0.352679     -0.127784      0.362091
C      5.61067      6.59456     10.35284        -0.283120     -0.651244     -0.022909
C     15.36773      6.59456     10.62556         0.421804     -0.945888      0.029763
C      5.61067     14.38384     10.62556        -0.142255      1.164043     -0.178851
C     15.36773     14.38384     10.35284         0.465511      0.659754     -0.028110
C      5.61067     10.35284      6.59456        -0.368651     -0.099483     -0.722205
C     15.36773     10.62556      6.59456         0.399921      0.117656     -0.713274
C      5.61067     10.62556     14.38384        -0.374578     -0.169046      1.234090
C     15.36773     10.35284     14.38384         0.251849      0.194074      1.443320
C     10.35284      6.59456      5.61067        -0.056187     -0.720286     -0.585349
C     10.62556      6.59456     15.36773        -0.111397     -0.904745      0.348803
C     10.62556     14.38384      5.61067        -0.479285      0.412223     -0.712856
C     10.35284     14.38384     15.36773        -0.157715      0.604240      0.422747
C      6.59456      5.61067     10.35284        -0.516468     -0.331873      0.022230
C      6.59456     15.36773     10.62556        -0.365763      0.441193      0.060869
C     14.38384      5.61067     10.62556         0.450078     -0.368532      0.001091
C     14.38384     15.36773     10.35284         1.117509      0.489304     -0.076293
C     10.40319      3.19606      7.29314        -0.002224      0.711169     -0.343799
C     10.35913      4.25547      6.23373         0.013584     -0.419352      0.291448
C      0.08601      7.29314      7.29314        -0.013971     -0.378994     -0.504886
C      0.13007      6.23373      6.23373        -0.067293      0.849634      0.068242
C      0.08601      3.19606      3.19606        -0.003250      0.685319      0.265412
C      0.13007      4.25547      4.25547         0.036396     -0.271735     -0.546848
C     10.40319      7.29314      3.19606        -0.065913     -1.147778      0.595162
C     10.35913      6.23373      4.25547        -0.040359      0.363580     -0.201114
C      7.29314     10.40319      3.19606        -1.084252     -0.055955      0.199153
C      6.23373     10.35913      4.25547         0.369246      0.088040     -0.546190
C      7.29314      0.08601      7.29314        -0.452473      0.031701     -0.499165
C      6.23373      0.13007      6.23373         0.182194      0.124974      0.125367
C      3.19606      0.08601      3.19606         0.695134      0.023730      0.164892
C      4.25547      0.13007      4.25547        -0.175235     -0.053146     -0.356162
C      3.19606     10.40319      7.29314         0.399809     -0.026891     -0.899601
C      4.25547     10.35913      6.23373        -0.151333     -0.073657      0.103058
C      3.19606      7.29314     10.40319         0.610213     -0.398783      0.002937
C      4.25547      6.23373     10.35913        -0.112140      0.183002      0.000973
C      7.29314      7.29314      0.08601        -0.413622     -0.310082     -0.014322
C      6.23373      6.23373      0.13007         0.175012      0.185439     -0.070194
C      3.19606      3.19606      0.08601         0.289259      0.480742     -0.023392
C      4.25547      4.25547      0.13007        -0.406975     -0.232887     -0.033735
C      7.29314      3.19606     10.40319        -0.278178      0.595169     -0.010045
C      6.23373      4.25547     10.35913         0.005214     -0.111119      0.020614
O     10.43466      3.58206      8.50569        -0.028555      0.086198      0.314621
O     10.54374     17.39634      8.50569         0.061061     -0.125687      0.586946
O     10.54374      3.58206     12.47271         0.028116      0.105728     -0.393101
O     10.43466     17.39634     12.47271         0.090655     -0.049025     -0.398222
O      8.50569     10.43466      3.58206         0.708465     -0.062298      0.011490
O      8.50569     10.54374     17.39634         0.504146      0.059491     -0.084084
O     12.47271     10.54374      3.58206        -0.649248      0.118564      0.205758
O     12.47271     10.43466     17.39634        -0.286734     -0.004428      0.025821
O      3.58206      8.50569     10.43466         0.038221      0.459494     -0.069931
O     17.39634      8.50569     10.54374        -0.059485      0.449859      0.057392
O      3.58206     12.47271     10.54374         0.115340     -0.582957      0.001568
O     17.39634     12.47271     10.43466        -0.176791     -0.746027     -0.053556
O      3.58206     10.43466      8.50569         0.208347     -0.060539      0.784841
O     17.39634     10.54374      8.50569        -0.087036      0.074229      0.530195
O      3.58206     10.54374     12.47271        -0.002378     -0.001879     -0.266646
O     17.39634     10.43466     12.47271         0.034850     -0.011858     -0.232687
O     10.43466      8.50569      3.58206        -0.104898      0.565319     -0.114461
O     10.54374      8.50569     17.39634         0.068658      0.509662     -0.084410
O     10.54374     12.47271      3.58206         0.104441     -0.625890      0.132712
O     10.43466     12.47271     17.39634        -0.057423     -0.672484     -0.264800
O      8.50569      3.58206     10.43466         0.393145      0.025070     -0.038151
O      8.50569     17.39634     10.54374         0.630455     -0.155513      0.046962
O     12.47271      3.58206     10.54374        -0.507352      0.126492      0.034914
O     12.47271     17.39634     10.43466        -0.622857     -0.130465      0.041649
O     11.90042     11.90042     19.56718        -0.273455     -0.305662      0.232081
O     19.56718     19.56718     19.56718         0.304284      0.317556      0.299313
O     19.56718     11.90042     11.90042         0.284126     -0.324054     -0.232225
O     11.90042     19.56718     11.90042        -0.316013      0.229157     -0.202842
O      9.45224      1.03696      9.45224        -0.086679      0.090685     -0.064668
O      1.03696      9.45224      9.45224         0.107022     -0.120298     -0.046237
O      1.03696      1.03696      1.03696         0.083719      0.057543      0.096908
O      9.45224      9.45224      1.03696        -0.061781     -0.131519      0.131878
Zr     10.48920      2.52580     10.48920         0.031731     -0.094219      0.085624
Zr     10.48920     18.45260     10.48920        -0.172190      0.259367     -0.346365
Zr     10.48920     10.48920      2.52580         0.120424      0.353005     -0.345125
Zr     10.48920     10.48920     18.45260        -0.083570     -0.209769      0.192739
Zr      2.52580     10.48920     10.48920        -0.256873      0.126277      0.233162
Zr     18.45260     10.48920     10.48920         0.223459     -0.119065     -0.012073
Pd      9.39576     14.28131      9.33816        -0.003360      0.038421     -0.046789
Pd      8.61666     13.69645     12.99738        -0.007698     -0.011562      0.024423
Pd     12.04083     14.40917      8.74494         0.013330     -0.017248      0.005384
Pd     12.75231     12.82029     10.64924        -0.036899      0.008735      0.044384
Pd     12.14740      7.11357     12.61642        -0.002384      0.002104     -0.001937
Pd     11.19816     14.85340     11.48828        -0.022177      0.037343     -0.028716
Pd     10.05973     12.51891     11.09291        -0.041429      0.056392     -0.039471
Pd     13.48625     12.13988      7.98515         0.012369      0.011600      0.004663
Pd     11.48419     11.56047      6.10942         0.007659      0.004620     -0.005323
Pd      7.86167      8.53523      7.54072         0.012076     -0.042072     -0.007266
Pd      8.73348     11.73494      6.87762        -0.011667      0.013134     -0.014352
Pd     10.30545      9.46316      8.14572        -0.010344     -0.006657      0.003100
Pd      8.50289     14.44111      6.82694        -0.011632      0.011758     -0.027388
Pd     12.36730      9.03948      6.59161         0.000415      0.009170      0.015394
Pd      9.74435      9.61273      5.55451         0.000574      0.006818      0.001287
Pd      6.87211      9.46297     12.18893        -0.003140     -0.000354      0.001025
Pd     12.21049      6.69731      7.88163         0.001069      0.015506      0.018320
Pd      5.94541     10.45616      9.72895        -0.013624     -0.008761     -0.000206
Pd      7.57563      7.14698     13.28184        -0.008449      0.019228      0.044299
Ir     11.77978      9.69659     13.06149        -0.046970     -0.010044      0.003149
Ir     13.57055      9.00388     11.45155        -0.020444      0.021263      0.010607
Ir      9.41598      8.83348     13.91511        -0.014884      0.016231      0.046382
Ir     10.55152     10.89599     14.91186        -0.025663     -0.026844      0.061482
Ir      7.28606     12.02299     11.36646        -0.012438     -0.009686     -0.011936
Ir     14.68047     10.85698     10.12304        -0.019039      0.038029      0.045047
Ir     12.19843     10.49408      9.65183         0.004946      0.012053     -0.016931
Ir      8.80015     11.04423     13.00786         0.049798     -0.005870     -0.006777
Ir     10.13974      9.87114     11.19836        -0.007531      0.015977     -0.042041
Ir     13.73547     11.36860     12.44282        -0.047799      0.002487      0.061335
Ir     11.59625     12.27899     13.11384        -0.109005     -0.022292      0.004327
Ir      8.52539     11.07702      9.37249        -0.023130      0.021064     -0.030732
Ir     11.60075      7.97819     10.07692        -0.001480      0.011262      0.016265
Ir      7.24600     13.01166      8.70201         0.008425      0.020699      0.004451
Ir      9.52133      6.99865      9.12465         0.007354      0.001188      0.052054
Ir      8.06585      8.74954     10.09710         0.001330     -0.003172     -0.011994
Ir     10.75679     12.09646      8.52882        -0.009122      0.009778     -0.024333
Ir      9.56518      7.47332     11.67951        -0.008614      0.069124      0.033616
Ir     13.70393      8.71026      8.81361         0.006579      0.020478      0.020709
