152
# total energy = -1024.32670983 eVH     10.35389      5.87395      7.64558         0.472112      0.038753      0.745251
H     10.62451     15.10445      7.64558         0.020066     -0.190388      0.594881
H     10.62451      5.87395     13.33282         0.101617      0.159600     -0.574481
H     10.35389     15.10445     13.33282        -0.436322     -0.047353     -0.773606
H      7.64558     10.35389      5.87395         0.340915      0.013088      0.168639
H      7.64558     10.62451     15.10445         0.894764     -0.328128     -0.008324
H     13.33282     10.62451      5.87395        -0.757883     -0.056901      0.156869
H     13.33282     10.35389     15.10445        -0.875470     -0.399925      0.200484
H      5.87395      7.64558     10.35389         0.202776      0.653811     -0.157240
H     15.10445      7.64558     10.62451        -0.139358      0.395330     -0.039073
H      5.87395     13.33282     10.62451         0.160919     -0.526426     -0.115628
H     15.10445     13.33282     10.35389        -0.083916     -1.179001      0.024926
H      5.87395     10.35389      7.64558         0.133954      0.146366      0.521646
H     15.10445     10.62451      7.64558         0.006552      0.110182      1.028191
H      5.87395     10.62451     13.33282         0.100852     -0.053072     -0.421625
H     15.10445     10.35389     13.33282        -0.128183     -0.169087     -0.533134
H     10.35389      7.64558      5.87395         0.046520      0.975316      0.236012
H     10.62451      7.64558     15.10445         0.008024      0.275993     -0.173585
H     10.62451     13.33282      5.87395        -0.092887     -0.419206      0.320412
H     10.35389     13.33282     15.10445        -0.456039     -0.631636     -0.015838
H      7.64558      5.87395     10.35389         0.484658      0.113904     -0.001203
H      7.64558     15.10445     10.62451         0.899039     -0.249981     -0.076579
H     13.33282      5.87395     10.62451        -0.584705      0.129766     -0.075183
H     13.33282     15.10445     10.35389        -0.616072     -0.055102      0.230072
H     12.45634     12.45634     19.01126         0.236986      0.276861     -0.235920
H     19.01126     19.01126     19.01126        -0.251475     -0.246671     -0.242881
H     19.01126     12.45634     12.45634        -0.263693      0.267010      0.220872
H     12.45634     19.01126     12.45634         0.233684     -0.264965      0.240773
C     10.35284      5.61067      6.59456        -0.195137     -0.639061      0.070057
C     10.62556     15.36773      6.59456        -0.027589      0.380065     -0.782147
C     10.62556      5.61067     14.38384        -0.008633     -0.062529      0.694714
C     10.35284     15.36773     14.38384         0.152878      0.725484      0.191374
C      6.59456     10.35284      5.61067        -0.358047     -0.021372     -0.284329
C      6.59456     10.62556     15.36773        -1.026392      0.333856      0.345972
C     14.38384     10.62556      5.61067         0.409987      0.337638     -0.627271
C     14.38384     10.35284     15.36773         0.987989     -0.004103      0.316971
C      5.61067      6.59456     10.35284        -0.368714     -0.414172      0.330926
C     15.36773      6.59456     10.62556         0.193483     -0.514862      0.027078
C      5.61067     14.38384     10.62556        -0.194897      0.591228      0.013625
C     15.36773     14.38384     10.35284         0.348963      0.046112     -0.161304
C      5.61067     10.35284      6.59456        -0.317346     -0.072850     -0.971648
C     15.36773     10.62556      6.59456         0.809774     -0.327788     -0.966836
C      5.61067     10.62556     14.38384        -0.475102      0.016480      0.277183
C     15.36773     10.35284     14.38384         0.664271     -0.098008      1.091040
C     10.35284      6.59456      5.61067        -0.248633     -0.590968     -0.871942
C     10.62556      6.59456     15.36773         0.052151     -0.285233      0.064158
C     10.62556     14.38384      5.61067         0.095348      1.197094     -0.431507
C     10.35284     14.38384     15.36773         0.228633      0.132633      0.711706
C      6.59456      5.61067     10.35284        -0.295349     -0.735876      0.093534
C      6.59456     15.36773     10.62556        -1.202706      0.273030      0.107834
C     14.38384      5.61067     10.62556         0.955487     -0.287256      0.028811
C     14.38384     15.36773     10.35284        -0.521055      0.771039     -0.374098
C     10.40319      3.19606      7.29314        -0.018170      0.839678     -0.393890
C     10.35913      4.25547      6.23373         0.052354     -0.473731      0.564136
C      0.08601      7.29314      7.29314        -0.018536     -0.473405     -0.347211
C      0.13007      6.23373      6.23373        -0.020027      0.017877      0.097780
C      0.08601      3.19606      3.19606         0.002310      1.239425      0.190981
C      0.13007      4.25547      4.25547        -0.049971     -0.217059     -0.212674
C     10.40319      7.29314      3.19606        -0.004991     -1.029517      0.384439
C     10.35913      6.23373      4.25547         0.030367      0.466771     -0.649203
C      7.29314     10.40319      3.19606        -0.349740      0.040191      0.759512
C      6.23373     10.35913      4.25547         0.195015      0.086605     -0.104627
C      7.29314      0.08601      7.29314        -0.597290     -0.022409     -0.266513
C      6.23373      0.13007      6.23373         0.384570     -0.071943      0.468639
C      3.19606      0.08601      3.19606         0.939034     -0.009641      0.309406
C      4.25547      0.13007      4.25547        -0.110992     -0.040545     -0.509808
C      3.19606     10.40319      7.29314         0.450179     -0.006579     -0.838450
C      4.25547     10.35913      6.23373        -0.265117      0.103247      0.253076
C      3.19606      7.29314     10.40319         0.495628     -1.325250     -0.043526
C      4.25547      6.23373     10.35913        -0.432744      0.800087      0.079003
C      7.29314      7.29314      0.08601        -0.400487     -0.222913     -0.005846
C      6.23373      6.23373      0.13007         0.159286      0.145676     -0.009190
C      3.19606      3.19606      0.08601         0.248033      0.261446     -0.018713
C      4.25547      4.25547      0.13007        -0.110213     -0.053022      0.015045
C      7.29314      3.19606     10.40319        -0.368889      0.664251      0.009007
C      6.23373      4.25547     10.35913         1.114228      0.002563      0.028016
O     10.43466      3.58206      8.50569        -0.029016      0.053618      0.444138
O     10.54374     17.39634      8.50569        -0.005310     -0.091933      0.439061
O     10.54374      3.58206     12.47271         0.043237     -0.097550     -0.140204
O     10.43466     17.39634     12.47271        -0.057759     -0.050984     -0.475378
O      8.50569     10.43466      3.58206         0.309466     -0.032561     -0.037383
O      8.50569     10.54374     17.39634         0.684610      0.026301     -0.176209
O     12.47271     10.54374      3.58206        -0.752860     -0.039162      0.145926
O     12.47271     10.43466     17.39634        -0.393413     -0.026157     -0.016035
O      3.58206      8.50569     10.43466         0.146652      1.080908     -0.012598
O     17.39634      8.50569     10.54374        -0.090943      0.415687      0.061864
O      3.58206     12.47271     10.54374         0.068616     -0.406942      0.039327
O     17.39634     12.47271     10.43466        -0.162607     -0.689688     -0.001008
O      3.58206     10.43466      8.50569         0.040184     -0.072153      0.709730
O     17.39634     10.54374      8.50569        -0.069486      0.044280      0.343171
O      3.58206     10.54374     12.47271        -0.009914      0.030221     -0.281662
O     17.39634     10.43466     12.47271        -0.245921      0.012388     -0.722060
O     10.43466      8.50569      3.58206         0.113203      0.827287      0.196417
O     10.54374      8.50569     17.39634         0.036555      0.665030     -0.159435
O     10.54374     12.47271      3.58206        -0.006455     -1.016143      0.198525
O     10.43466     12.47271     17.39634        -0.028426     -0.898695     -0.201091
O      8.50569      3.58206     10.43466         0.536172      0.110521     -0.017292
O      8.50569     17.39634     10.54374         0.521341     -0.206974     -0.012011
O     12.47271      3.58206     10.54374        -0.465615      0.156700      0.056771
O     12.47271     17.39634     10.43466        -0.396804      0.032213     -0.007841
O     11.90042     11.90042     19.56718        -0.270962     -0.325848      0.257839
O     19.56718     19.56718     19.56718         0.281887      0.286816      0.286297
O     19.56718     11.90042     11.90042         0.294691     -0.302939     -0.201513
O     11.90042     19.56718     11.90042        -0.269598      0.281727     -0.247289
O      9.45224      1.03696      9.45224        -0.082800      0.050381     -0.056510
O      1.03696      9.45224      9.45224         0.035873     -0.165105     -0.116429
O      1.03696      1.03696      1.03696         0.010932      0.116870      0.208388
O      9.45224      9.45224      1.03696        -0.063981     -0.086489      0.126811
Zr     10.48920      2.52580     10.48920        -0.036593     -0.118879     -0.168888
Zr     10.48920     18.45260     10.48920         0.020032      0.226565     -0.029485
Zr     10.48920     10.48920      2.52580        -0.117745     -0.180231     -0.536723
Zr     10.48920     10.48920     18.45260        -0.040427      0.024327      0.467216
Zr      2.52580     10.48920     10.48920        -0.364455      0.298165      0.139128
Zr     18.45260     10.48920     10.48920         0.203812      0.045677     -0.230212
Pd      8.51562      9.86657     13.23372        -0.047285     -0.032473      0.013692
Pd     10.52969      9.49527     10.23717        -0.057728      0.010350      0.016170
Pd     13.27263      8.72393     12.45986        -0.010896      0.014496      0.026378
Pd     10.42450     10.67791     15.07508        -0.045227      0.022381      0.000031
Pd     12.93431     11.35276     13.49381        -0.038071     -0.018649     -0.001455
Pd     14.90341     10.68912     11.32132         0.004591     -0.005424     -0.000111
Pd      6.84557      7.76071     12.42456        -0.015524     -0.028943      0.002364
Pd      9.21427      7.24729      9.54725         0.016045     -0.047155     -0.030001
Pd      9.52274      7.56447     12.26951         0.041223     -0.018470     -0.013851
Pd     11.74190      7.15738     10.89281        -0.005492     -0.009436      0.021429
Pd     11.61779      7.84331      8.31763        -0.014832     -0.004739     -0.027335
Pd      7.15597     11.73932     11.59411         0.006377     -0.030186     -0.032598
Pd      9.22740     14.31931      9.33026         0.022027      0.043888      0.001408
Pd      8.13368     12.38509     14.15893         0.023560     -0.005471     -0.012879
Pd     14.20241     14.22774      8.33387        -0.014178     -0.040293      0.029058
Pd     11.70557     13.34785      8.81824        -0.032182     -0.006720      0.018962
Pd     14.09619     11.65241      8.97514         0.033104     -0.012045     -0.034181
Pd      8.72843     13.95481     12.10858         0.001527      0.008187     -0.020729
Pd     12.19758     13.93200     13.96518         0.017802      0.022702     -0.001636
Pd     11.37251     14.10911     11.34799         0.033643     -0.021039     -0.013608
Pd     14.00638     13.37543     12.08565         0.022680      0.013380      0.001560
Pd     12.28720     11.56702     10.89164         0.016960      0.006134      0.017131
Pd     12.94525     12.63308      6.60215         0.001653     -0.015185     -0.000894
Pd     13.94509      8.84775      7.57990        -0.015129      0.016240     -0.007487
Pd      6.97123      8.48188      8.46454        -0.006383     -0.020913     -0.008812
Pd      5.55375     10.04697     10.16126         0.011413     -0.003392     -0.038911
Pd      9.38984      9.47872      7.52250        -0.030475     -0.013439      0.022373
Pd      8.49536      6.99184      6.95441         0.003363      0.006261     -0.034760
Pd      9.65308     11.94634     10.56868        -0.012439     -0.033940     -0.025434
Pd     11.77950     10.64245      8.07763         0.040168     -0.007605     -0.015421
Pd     11.75436      8.95959      5.89610        -0.005647      0.001456     -0.015870
Pd     10.53041     11.33958      5.77488         0.024197      0.022044     -0.038754
Ir     10.99063      9.70576     12.72465        -0.072433      0.010860     -0.011145
Ir     13.17110      9.29473      9.95746         0.033536      0.002192      0.051367
Ir     10.49197     12.15833     12.93324         0.051510      0.010576      0.012068
Ir      7.72129     11.02416      9.08757        -0.008702     -0.004075      0.060758
Ir      9.55482     12.09163      8.00680        -0.023109     -0.009990     -0.015238
Ir      8.04568      9.27181     10.78101         0.023542     -0.009338     -0.065011
