9
# total energy = -63.87757875 eVH      2.54432      2.84541      0.00000         0.001640      0.043893      0.000000
H      0.02618      6.60947      0.00000        -0.001640     -0.043893      0.000000
C      1.23216      8.06735     -0.00000         0.002330      0.020344      0.000000
C      1.33834      1.38753      0.00000        -0.002330     -0.020344     -0.000000
C     -0.01615      8.82701     -0.00000        -0.005309      0.015106      0.000000
C      0.01615      0.69807     -0.00000         0.005309     -0.015106     -0.000000
N      1.55856      2.70741     -0.00000         0.003789     -0.011447      0.000000
N      1.01194      6.74748      0.00000        -0.003789      0.011447      0.000000
Ir      1.28525      4.72744      0.00000         0.000000     -0.000000      0.000000
