10
# total energy = -65.09037382 eVH      2.09333      1.08417      7.50000         0.019643      0.010174      0.000000
H      3.43101      1.77699      7.50000        -0.019643     -0.010174     -0.000000
C      4.38781      2.27253      7.50000        -0.296689     -0.153661      0.000000
C      1.13653      0.58863      7.50000         0.296689      0.153661      0.000000
N      0.07704      1.38418      7.50000        -0.557789     -0.061676     -0.000000
N      5.44730      1.47698      7.50000         0.557789      0.061676      0.000000
N      1.17498     -0.73574      7.50000        -0.372212     -0.419989      0.000000
N      4.34936      3.59690      7.50000         0.372212      0.419989     -0.000000
Pd      2.76217     -1.95131      7.50000         0.000000      0.000000      0.000000
Pd      0.00000      3.38190      7.50000         0.000000     -0.000000      0.000000
