26
# total energy = -177.58872259 eVH      0.07527      6.30292      7.50000         0.006506      0.005319     -0.000000
H      2.98349      1.80487      7.50000        -0.003243     -0.017844     -0.000000
H      5.47542      5.38356      7.50000        -0.017250     -0.030322      0.000000
H      8.39644     -2.58927      7.50000        -0.006506     -0.005319     -0.000000
H      5.48822      1.90877      7.50000         0.003243      0.017844     -0.000000
H      2.99629     -1.66992      7.50000         0.017250      0.030322     -0.000000
C      7.54582      2.58247      7.50000        -0.005868     -0.000456      0.000000
C      1.43046     -0.23869      7.50000         0.006000     -0.027974      0.000000
C      7.96692     -4.69812      7.50000         0.020715     -0.025481     -0.000000
C      0.92589      1.13118      7.50000         0.005868      0.000456      0.000000
C      7.04125      3.95233      7.50000        -0.006000      0.027974     -0.000000
C      0.50479      8.41177      7.50000        -0.020715      0.025481     -0.000000
C      7.59369     -3.32298      7.50000        -0.035469      0.018023     -0.000000
C      6.52755      1.58080      7.50000        -0.015743      0.004776      0.000000
C      2.79381     -0.59171      7.50000        -0.014718     -0.043173     -0.000000
C      0.87802      7.03663      7.50000         0.035469     -0.018023     -0.000000
C      1.94416      2.13285      7.50000         0.015743     -0.004776      0.000000
C      5.67790      4.30535      7.50000         0.014718      0.043173      0.000000
O      6.40023     -2.80649      7.50000         0.029704     -0.002821      0.000000
O      6.72548      0.29861      7.50000        -0.016127      0.005912     -0.000000
O      3.89204      0.12063      7.50000        -0.005642      0.004378     -0.000000
O      2.07148      6.52013      7.50000        -0.029704      0.002821      0.000000
O      1.74623      3.41503      7.50000         0.016127     -0.005912     -0.000000
O      4.57967      3.59302      7.50000         0.005642     -0.004378     -0.000000
Ir      5.42346     -1.16005      7.50000         0.034133     -0.007677     -0.000000
Ir      3.04825      4.87369      7.50000        -0.034133      0.007677     -0.000000
