152
# total energy = -1093.15584071 eVH     10.35389      5.87395      7.64558        -0.032771     -0.121472      1.188343
H     10.62451     15.10445      7.64558        -0.169499      0.084863      1.382591
H     10.62451      5.87395     13.33282         0.149157     -0.036930     -1.071561
H     10.35389     15.10445     13.33282         0.021150     -0.050426     -0.879655
H      7.64558     10.35389      5.87395         0.525245      0.024059     -0.095749
H      7.64558     10.62451     15.10445         0.404773     -0.001600      0.005995
H     13.33282     10.62451      5.87395        -0.669198     -0.034677      0.002792
H     13.33282     10.35389     15.10445        -0.430708     -0.013515     -0.017025
H      5.87395      7.64558     10.35389        -0.145774      1.337056      0.056680
H     15.10445      7.64558     10.62451        -0.016995      0.448072      0.031249
H      5.87395     13.33282     10.62451        -0.076664     -0.225681      0.042665
H     15.10445     13.33282     10.35389         0.189719     -1.517921      0.109185
H      5.87395     10.35389      7.64558        -0.082103     -0.762743      0.493461
H     15.10445     10.62451      7.64558         0.444366      0.799019      0.217831
H      5.87395     10.62451     13.33282        -0.004837     -0.177943     -0.267305
H     15.10445     10.35389     13.33282        -0.065120      0.233494     -0.178971
H     10.35389      7.64558      5.87395        -0.113216      0.435166      0.089834
H     10.62451      7.64558     15.10445         0.051684      0.500908      0.282495
H     10.62451     13.33282      5.87395         0.090714     -0.407660     -0.198468
H     10.35389     13.33282     15.10445        -0.139553     -0.564049      0.174406
H      7.64558      5.87395     10.35389         0.487922     -0.035808     -0.048908
H      7.64558     15.10445     10.62451         0.300558      0.029077     -0.028577
H     13.33282      5.87395     10.62451        -0.196442     -0.084273     -0.007937
H     13.33282     15.10445     10.35389        -0.501409      0.091523     -0.017085
H     12.45634     12.45634     19.01126         0.265488      0.247806     -0.244845
H     19.01126     19.01126     19.01126        -0.262960     -0.242659     -0.251980
H     19.01126     12.45634     12.45634        -0.265416      0.261823      0.232905
H     12.45634     19.01126     12.45634         0.274989     -0.255336      0.226284
C     10.35284      5.61067      6.59456        -0.151666     -0.314703     -1.787173
C     10.62556     15.36773      6.59456         0.427920      0.130188     -1.858590
C     10.62556      5.61067     14.38384        -0.344566     -0.125205      1.703267
C     10.35284     15.36773     14.38384         0.231197      0.149622      1.627800
C      6.59456     10.35284      5.61067        -0.930032     -0.117921     -0.320170
C      6.59456     10.62556     15.36773        -0.830176     -0.008130      0.117855
C     14.38384     10.62556      5.61067         1.033035      0.041421     -0.233491
C     14.38384     10.35284     15.36773         0.775282     -0.022875      0.169191
C      5.61067      6.59456     10.35284        -0.097649     -1.662400      0.062149
C     15.36773      6.59456     10.62556         0.317392     -0.913126      0.037680
C      5.61067     14.38384     10.62556        -0.420037      0.797656      0.043599
C     15.36773     14.38384     10.35284         0.057915      1.807164     -0.078067
C      5.61067     10.35284      6.59456        -0.761353      0.286532     -1.835599
C     15.36773     10.62556      6.59456         0.739270     -0.210478     -1.931878
C      5.61067     10.62556     14.38384        -0.673944      0.092141      1.618231
C     15.36773     10.35284     14.38384         0.561005     -0.061455      1.402410
C     10.35284      6.59456      5.61067         0.025704     -1.540931     -0.751839
C     10.62556      6.59456     15.36773        -0.049543     -1.913464      0.698530
C     10.62556     14.38384      5.61067         0.086531      1.829805     -0.852088
C     10.35284     14.38384     15.36773         0.037295      1.851221      0.616650
C      6.59456      5.61067     10.35284        -0.880386     -0.813158     -0.032242
C      6.59456     15.36773     10.62556        -1.025194      0.571860      0.072033
C     14.38384      5.61067     10.62556         0.957966     -0.688060      0.089347
C     14.38384     15.36773     10.35284         0.878794      0.878723     -0.001251
C     10.40319      3.19606      7.29314        -0.005520      0.530960     -0.576310
C     10.35913      4.25547      6.23373        -0.009294     -0.833144      0.537253
C      0.08601      7.29314      7.29314         0.014497     -0.464632     -0.572213
C      0.13007      6.23373      6.23373         0.058823      0.849842      0.450854
C      0.08601      3.19606      3.19606         0.027484      0.689578      0.459397
C      0.13007      4.25547      4.25547        -0.041674     -0.736823     -0.481702
C     10.40319      7.29314      3.19606        -0.017060     -0.808516      0.479342
C     10.35913      6.23373      4.25547         0.008577      0.564716     -0.509626
C      7.29314     10.40319      3.19606        -0.312689     -0.006573      0.502054
C      6.23373     10.35913      4.25547         0.186747     -0.078245     -0.149963
C      7.29314      0.08601      7.29314        -0.253528     -0.030517     -0.381771
C      6.23373      0.13007      6.23373         0.153975     -0.095810      0.370919
C      3.19606      0.08601      3.19606         0.420399      0.013778      0.481019
C      4.25547      0.13007      4.25547        -0.204866      0.069865     -0.199845
C      3.19606     10.40319      7.29314         0.222567      0.033559     -0.503954
C      4.25547     10.35913      6.23373        -0.187147      0.105918      0.343875
C      3.19606      7.29314     10.40319         0.172524     -0.318037      0.008469
C      4.25547      6.23373     10.35913        -0.571592      0.176613      0.052769
C      7.29314      7.29314      0.08601        -0.586119     -0.466647      0.003228
C      6.23373      6.23373      0.13007         0.120269      0.194965     -0.058496
C      3.19606      3.19606      0.08601         0.559830      0.459611      0.004918
C      4.25547      4.25547      0.13007        -0.067162     -0.100978     -0.035918
C      7.29314      3.19606     10.40319        -0.218224      0.337486      0.009894
C      6.23373      4.25547     10.35913         0.593436     -0.248784      0.017306
O     10.43466      3.58206      8.50569         0.016555      0.237211      0.497158
O     10.54374     17.39634      8.50569        -0.028750     -0.239181      0.515362
O     10.54374      3.58206     12.47271         0.081054      0.159305     -0.394022
O     10.43466     17.39634     12.47271        -0.100988     -0.119929     -0.355116
O      8.50569     10.43466      3.58206         0.413369     -0.021331      0.075304
O      8.50569     10.54374     17.39634         0.468570      0.059683     -0.124147
O     12.47271     10.54374      3.58206        -0.501710     -0.010118      0.095617
O     12.47271     10.43466     17.39634        -0.417565     -0.053735     -0.103911
O      3.58206      8.50569     10.43466         0.165462      0.424417     -0.055254
O     17.39634      8.50569     10.54374        -0.088825      0.564147      0.047962
O      3.58206     12.47271     10.54374         0.047815     -0.532406      0.039714
O     17.39634     12.47271     10.43466        -0.174052     -0.454382     -0.024814
O      3.58206     10.43466      8.50569         0.188011     -0.014902      0.492243
O     17.39634     10.54374      8.50569        -0.125063     -0.009763      0.458962
O      3.58206     10.54374     12.47271         0.179103      0.089010     -0.482170
O     17.39634     10.43466     12.47271        -0.191245     -0.081098     -0.527893
O     10.43466      8.50569      3.58206         0.048008      0.659139      0.271039
O     10.54374      8.50569     17.39634         0.057434      0.490232     -0.211118
O     10.54374     12.47271      3.58206        -0.019290     -0.634079      0.269372
O     10.43466     12.47271     17.39634        -0.033105     -0.527280     -0.219780
O      8.50569      3.58206     10.43466         0.517256      0.151364     -0.030700
O      8.50569     17.39634     10.54374         0.621604     -0.095645      0.045102
O     12.47271      3.58206     10.54374        -0.626896      0.103072      0.034946
O     12.47271     17.39634     10.43466        -0.485375     -0.138515     -0.017192
O     11.90042     11.90042     19.56718        -0.307578     -0.283710      0.270791
O     19.56718     19.56718     19.56718         0.315396      0.270751      0.289661
O     19.56718     11.90042     11.90042         0.324172     -0.307498     -0.235830
O     11.90042     19.56718     11.90042        -0.328415      0.281623     -0.224004
O      9.45224      1.03696      9.45224        -0.031167      0.060548     -0.066140
O      1.03696      9.45224      9.45224         0.036471     -0.079545     -0.059378
O      1.03696      1.03696      1.03696         0.033873      0.051500      0.131358
O      9.45224      9.45224      1.03696        -0.024492     -0.088310      0.134144
Zr     10.48920      2.52580     10.48920        -0.106779     -0.129825     -0.011126
Zr     10.48920     18.45260     10.48920         0.110890      0.187958     -0.099966
Zr     10.48920     10.48920      2.52580        -0.009921      0.107520     -0.321184
Zr     10.48920     10.48920     18.45260        -0.032308     -0.015010      0.146490
Zr      2.52580     10.48920     10.48920        -0.047531     -0.029604     -0.051038
Zr     18.45260     10.48920     10.48920         0.090949      0.110091     -0.141450
Pd     12.92048      8.09254      7.61444        -0.007269      0.001065      0.000925
Pd      9.57353     14.56692     11.75517         0.003020      0.009564     -0.009697
Pd     12.30545     10.86755     10.42061         0.000277     -0.000592     -0.001475
Pd     14.63578      9.95171     11.58753        -0.002572      0.004355     -0.006252
Pd     10.92670      9.33185      6.11567        -0.019935     -0.007109     -0.011759
Pd      6.89344      8.54134      8.97418         0.001558      0.017184     -0.016869
Ir     10.24470     11.84149     11.75486        -0.004982     -0.010301     -0.017699
Ir     12.88054      8.26216     10.29194        -0.001727      0.003659      0.001968
Ir     12.28568     10.97289      7.71939         0.001331     -0.000823     -0.003206
Ir      9.68163     14.38669      9.16066        -0.002528     -0.006835      0.018342
Ir     10.76658      9.16932     11.70116         0.007762      0.003145     -0.015273
Ir      8.67213     10.08065      7.74943        -0.033468     -0.011158      0.010792
Ir     13.85255     12.49378      9.05044         0.013567     -0.017521     -0.023497
Ir     11.96350     13.55490      7.82478         0.004747      0.007992     -0.007415
Ir     14.27954      9.88267      9.01167        -0.008013      0.001336     -0.019974
Ir      9.17268      7.44046     10.35813        -0.012065     -0.001354      0.004921
Ir      8.15061     12.76445      7.83394         0.005793      0.005369     -0.006075
Ir      9.11770      7.60554      7.79343        -0.007791      0.016052      0.017389
Ir     11.86139     13.48793     13.02808        -0.014718     -0.001723      0.008903
Ir     11.34896      6.66980     11.68177        -0.003256      0.002813      0.012777
Ir     10.23074     11.81378      9.07485         0.000555      0.013668      0.022375
Ir     12.86301      8.29813     12.94985        -0.010407      0.010480      0.009248
Ir     10.79067      9.15304      8.96503        -0.029146     -0.004717     -0.008742
Ir     11.78642     13.57075     10.42101         0.008919     -0.008744     -0.011191
Ir     13.82574     12.57095     11.78091         0.025409      0.007059     -0.011106
Ir     12.35504     10.96042     13.08470         0.013104      0.001572     -0.024859
Ir     10.10595     11.72345      6.49029        -0.005843     -0.005497     -0.013319
Ir     11.28389      6.57146      9.18178         0.009257     -0.002274      0.009336
Ir      7.16946      8.36764     11.78555        -0.034062      0.001095      0.010311
Ir      8.16773     12.71065     10.43246         0.001884      0.000569     -0.002458
Ir     10.85447      9.25180     14.25976        -0.002918     -0.000883     -0.005490
Ir      8.07428     12.53911     12.98588        -0.008605     -0.023416      0.005701
Ir      6.54539     11.27869      9.06379         0.003930     -0.004457     -0.012499
Ir      8.62948     10.04650     13.04383         0.002825     -0.005100     -0.016007
Ir      6.55256     10.91593     11.52467         0.007320      0.013694      0.001743
Ir      9.10455      7.46468     13.02397        -0.001479     -0.008299      0.005420
Ir     10.17954     11.64682     14.35986        -0.002986      0.011701     -0.003224
Ir      8.69077     10.06426     10.39002         0.005468      0.003942     -0.007560
