152
# total energy = -1005.99743443 eVH     10.35389      5.87395      7.64558         0.258710      0.036326      0.636527
H     10.62451     15.10445      7.64558        -0.107585     -0.142184      0.517459
H     10.62451      5.87395     13.33282         0.485254      0.121247     -0.584071
H     10.35389     15.10445     13.33282         0.075252     -0.184012     -0.552117
H      7.64558     10.35389      5.87395         0.371604      0.072858      0.167440
H      7.64558     10.62451     15.10445         0.694287      0.472101     -0.040767
H     13.33282     10.62451      5.87395        -0.531599      0.419758      0.075966
H     13.33282     10.35389     15.10445        -0.803449     -0.094963      0.008534
H      5.87395      7.64558     10.35389         0.243001      0.712835     -0.374247
H     15.10445      7.64558     10.62451        -0.095004      0.481855      0.284342
H      5.87395     13.33282     10.62451         0.158901     -0.697153     -0.157671
H     15.10445     13.33282     10.35389        -0.008874     -1.030362     -0.327398
H      5.87395     10.35389      7.64558         0.256140      0.259869      0.707049
H     15.10445     10.62451      7.64558        -0.109094      0.405639      0.762357
H      5.87395     10.62451     13.33282         0.136736      0.329503     -0.692964
H     15.10445     10.35389     13.33282        -0.050999     -0.073608     -0.691920
H     10.35389      7.64558      5.87395         0.387165      1.049894     -0.008007
H     10.62451      7.64558     15.10445         0.535815      0.536497     -0.119960
H     10.62451     13.33282      5.87395        -0.397874     -0.842725      0.187819
H     10.35389     13.33282     15.10445        -0.044451     -0.433526     -0.217006
H      7.64558      5.87395     10.35389         0.849361      0.094216     -0.290765
H      7.64558     15.10445     10.62451         0.835401     -0.197870      0.008540
H     13.33282      5.87395     10.62451        -0.802497      0.194688      0.587568
H     13.33282     15.10445     10.35389        -0.444288     -0.110223     -0.132532
H     12.45634     12.45634     19.01126         0.235382      0.270400     -0.239789
H     19.01126     19.01126     19.01126        -0.262463     -0.240633     -0.261198
H     19.01126     12.45634     12.45634        -0.266852      0.268726      0.218815
H     12.45634     19.01126     12.45634         0.232086     -0.255802      0.278245
C     10.35284      5.61067      6.59456        -0.433476     -0.721874      0.186712
C     10.62556     15.36773      6.59456         0.062954      0.367151     -0.299281
C     10.62556      5.61067     14.38384        -0.332608     -0.364643     -0.302974
C     10.35284     15.36773     14.38384        -0.008669      0.336113      0.540588
C      6.59456     10.35284      5.61067        -0.233072     -0.003777     -0.378520
C      6.59456     10.62556     15.36773        -0.260762     -0.219174      0.807167
C     14.38384     10.62556      5.61067        -0.266341     -0.400145     -0.518148
C     14.38384     10.35284     15.36773         0.976789     -0.057124      0.254200
C      5.61067      6.59456     10.35284        -0.539398     -0.001629      0.148119
C     15.36773      6.59456     10.62556         0.527057      0.022855     -0.250775
C      5.61067     14.38384     10.62556        -0.336593      0.974239      0.077418
C     15.36773     14.38384     10.35284         0.315471      1.038045      0.052163
C      5.61067     10.35284      6.59456        -0.180873     -0.294949     -0.615520
C     15.36773     10.62556      6.59456         0.446376     -0.286067      0.117175
C      5.61067     10.62556     14.38384        -0.720995     -0.351345     -0.065848
C     15.36773     10.35284     14.38384         0.385236     -0.062561      1.015505
C     10.35284      6.59456      5.61067        -0.209636     -0.222833     -0.654704
C     10.62556      6.59456     15.36773        -0.267433      0.126292      0.448408
C     10.62556     14.38384      5.61067         0.203296      1.063462     -0.347599
C     10.35284     14.38384     15.36773         0.023616      0.539936      0.438269
C      6.59456      5.61067     10.35284        -0.169897     -0.660819      0.238613
C      6.59456     15.36773     10.62556        -1.019129      0.297633      0.079614
C     14.38384      5.61067     10.62556         0.493924     -0.547415     -0.365296
C     14.38384     15.36773     10.35284         0.214564      0.456982     -0.102158
C     10.40319      3.19606      7.29314         0.009223      0.689849     -0.483872
C     10.35913      4.25547      6.23373         0.085287     -0.725739     -0.018775
C      0.08601      7.29314      7.29314        -0.044035     -0.409483     -0.310473
C      0.13007      6.23373      6.23373        -0.022938      0.083677      0.569256
C      0.08601      3.19606      3.19606        -0.016356      1.254219      0.281313
C      0.13007      4.25547      4.25547         0.049277     -0.776466     -0.153246
C     10.40319      7.29314      3.19606         0.010263     -0.338565      0.347724
C     10.35913      6.23373      4.25547         0.026963      0.010287     -0.881059
C      7.29314     10.40319      3.19606        -0.347477      0.020951      0.565583
C      6.23373     10.35913      4.25547         0.207477      0.057153     -0.111842
C      7.29314      0.08601      7.29314        -0.523058     -0.064470     -0.373346
C      6.23373      0.13007      6.23373         0.681011     -0.049375      0.487335
C      3.19606      0.08601      3.19606         0.685938     -0.036427      0.567260
C      4.25547      0.13007      4.25547        -0.575628     -0.082011     -0.552302
C      3.19606     10.40319      7.29314         0.481991     -0.018021     -0.775110
C      4.25547     10.35913      6.23373        -0.471607      0.036495      0.201120
C      3.19606      7.29314     10.40319         0.287273     -1.262639      0.040425
C      4.25547      6.23373     10.35913        -0.718982      0.103179      0.153579
C      7.29314      7.29314      0.08601        -0.407560     -0.371649     -0.027856
C      6.23373      6.23373      0.13007         0.468554      0.213819     -0.020013
C      3.19606      3.19606      0.08601         0.497423      0.372977     -0.039628
C      4.25547      4.25547      0.13007        -0.152235     -0.649654     -0.034514
C      7.29314      3.19606     10.40319        -0.322820      0.425949      0.075689
C      6.23373      4.25547     10.35913         0.263866     -0.691425      0.139023
O     10.43466      3.58206      8.50569        -0.015826      0.102930      0.505268
O     10.54374     17.39634      8.50569         0.036540     -0.174858      0.483722
O     10.54374      3.58206     12.47271         0.056599     -0.084368     -0.187234
O     10.43466     17.39634     12.47271        -0.038479     -0.182908     -0.560148
O      8.50569     10.43466      3.58206         0.326997      0.001341      0.032904
O      8.50569     10.54374     17.39634         0.631548      0.033753     -0.145040
O     12.47271     10.54374      3.58206        -0.685709      0.083221      0.092449
O     12.47271     10.43466     17.39634        -0.438853      0.026338     -0.111175
O      3.58206      8.50569     10.43466         0.180421      1.035649     -0.045761
O     17.39634      8.50569     10.54374        -0.161598      0.539100      0.076449
O      3.58206     12.47271     10.54374         0.084223     -0.364178      0.048990
O     17.39634     12.47271     10.43466        -0.157192     -0.546285     -0.022779
O      3.58206     10.43466      8.50569         0.076234     -0.063137      0.591702
O     17.39634     10.54374      8.50569        -0.110568      0.066117      0.522371
O      3.58206     10.54374     12.47271         0.052068      0.050877     -0.530197
O     17.39634     10.43466     12.47271        -0.219477     -0.039575     -0.595866
O     10.43466      8.50569      3.58206        -0.039531      0.467048      0.134838
O     10.54374      8.50569     17.39634         0.048883      0.530134     -0.160489
O     10.54374     12.47271      3.58206        -0.001607     -1.008816      0.205993
O     10.43466     12.47271     17.39634         0.041930     -0.731919     -0.174851
O      8.50569      3.58206     10.43466         0.507206      0.146618     -0.054331
O      8.50569     17.39634     10.54374         0.487002     -0.197829      0.014169
O     12.47271      3.58206     10.54374        -0.638708      0.234166      0.009077
O     12.47271     17.39634     10.43466        -0.214835      0.069271     -0.056438
O     11.90042     11.90042     19.56718        -0.239711     -0.289235      0.247504
O     19.56718     19.56718     19.56718         0.310429      0.295212      0.300567
O     19.56718     11.90042     11.90042         0.290480     -0.264885     -0.233209
O     11.90042     19.56718     11.90042        -0.242159      0.290627     -0.334573
O      9.45224      1.03696      9.45224        -0.020167      0.086884     -0.072832
O      1.03696      9.45224      9.45224         0.091016     -0.091852     -0.138285
O      1.03696      1.03696      1.03696         0.089316      0.190003      0.048305
O      9.45224      9.45224      1.03696        -0.110881     -0.101466      0.031888
Zr     10.48920      2.52580     10.48920        -0.130571     -0.290030     -0.036153
Zr     10.48920     18.45260     10.48920        -0.074139      0.215083      0.090567
Zr     10.48920     10.48920      2.52580         0.051947     -0.407622     -0.252039
Zr     10.48920     10.48920     18.45260        -0.273115     -0.090691      0.323706
Zr      2.52580     10.48920     10.48920        -0.377070      0.240559      0.298970
Zr     18.45260     10.48920     10.48920         0.239388     -0.001506     -0.223903
Pd     13.60768      8.98756      9.20651        -0.000181     -0.001573     -0.005119
Pd      5.62818      9.86720     10.13304         0.000156      0.001450     -0.007216
Pd      6.77219     11.84973     11.70963         0.000562     -0.001474      0.000297
Pd     12.06173     12.99832      7.36119        -0.005349     -0.002832      0.001291
Pd     11.87643      7.74050      7.45742        -0.002569     -0.004809     -0.004004
Pd      8.31530      6.83722      6.54161         0.000912     -0.009644     -0.008816
Pd     10.58644     11.16894      5.65294        -0.015572     -0.001116      0.004031
Pd     14.39943      8.54817      6.73235        -0.002154     -0.000589     -0.002487
Pd      9.66657     11.73078      8.14191         0.001256     -0.003324      0.003179
Pd      6.73467      6.79051     12.33634        -0.003373     -0.002952      0.001824
Pd      6.59492      8.22123      7.92680         0.017777      0.029809     -0.030031
Pd      6.52573      8.49278     14.38291        -0.000367     -0.001156      0.002739
Pd     11.48696      6.51555      9.94845        -0.003632     -0.003464      0.000859
Pd      9.47214      9.19960      7.16602        -0.006030     -0.000696      0.003313
Pd      8.97905     13.99124      9.35361        -0.000145     -0.003604      0.009303
Pd      9.44212      7.36823     11.70487        -0.004875     -0.000894     -0.004489
Pd     10.62785      8.96647      9.67865        -0.004303     -0.009024     -0.007347
Pd      9.34053     11.56104     10.72946        -0.000460      0.006706      0.007785
Pd      8.87152      7.06739      9.11828        -0.005085      0.006201     -0.004620
Pd      8.55391      6.57960     14.23629         0.000271      0.000436     -0.000966
Pd      7.62578      9.32325     12.02289        -0.004248     -0.000794      0.004129
Pd     11.94751     10.37694      7.71668        -0.006771      0.000383     -0.012174
Pd      7.12885     12.01548      9.06698         0.000757     -0.000895      0.000350
Pd      8.14353      9.62228      9.45386         0.006701     -0.002940      0.008857
Pd     14.01313      6.49972      8.52335        -0.002311     -0.001265      0.000569
Pd     12.62792      8.40631     11.56968        -0.000129     -0.002253     -0.000681
Pd      8.76265     11.57270     13.41105        -0.003674      0.001524      0.000709
Pd     13.87596     11.91757      8.96841        -0.004581     -0.002612     -0.001456
Pd     12.93878     10.70249     13.07399        -0.002772     -0.001937     -0.000688
Pd     14.77026     10.43546     11.11738        -0.003961     -0.005549      0.000193
Pd     12.05740     10.89760     10.53715        -0.003353      0.006843     -0.000088
Pd     11.44547     13.34880      9.92794         0.001464      0.001018      0.002352
Pd     13.59775     12.91691     11.62724         0.000139     -0.004674     -0.000398
Pd     11.11562     12.62397     12.54295        -0.002053      0.000969     -0.000347
Pd     10.94525     11.06449     14.81731         0.001352      0.002362      0.002597
Pd     10.50346      9.72524     12.38032        -0.002985     -0.001125     -0.002799
Pd      9.08398      9.14194     14.43131        -0.000583     -0.002947      0.005729
Pd      8.80501     13.86151     12.05323        -0.004181     -0.001666      0.009831
