152
# total energy = -1060.09587364 eVH     10.35389      5.87395      7.64558        -0.308709      0.082081      1.116374
H     10.62451     15.10445      7.64558         0.064371     -0.069525      0.927156
H     10.62451      5.87395     13.33282        -0.272783      0.064061     -0.794174
H     10.35389     15.10445     13.33282         0.077825     -0.305759     -0.855570
H      7.64558     10.35389      5.87395         0.920766     -0.164945      0.195277
H      7.64558     10.62451     15.10445         0.325395     -0.034173     -0.067111
H     13.33282     10.62451      5.87395        -0.872655      0.205115      0.226008
H     13.33282     10.35389     15.10445        -0.278019     -0.022345     -0.068760
H      5.87395      7.64558     10.35389         0.088994      0.428886     -0.009109
H     15.10445      7.64558     10.62451        -0.005851      0.442018     -0.065414
H      5.87395     13.33282     10.62451        -0.004518     -0.961480      0.091007
H     15.10445     13.33282     10.35389        -0.049251     -0.328563     -0.006080
H      5.87395     10.35389      7.64558         0.295491      0.091220      0.385271
H     15.10445     10.62451      7.64558        -0.117087     -0.174378      0.674005
H      5.87395     10.62451     13.33282        -0.074330      0.466082     -0.614265
H     15.10445     10.35389     13.33282         0.256250     -0.658468     -0.837686
H     10.35389      7.64558      5.87395        -0.046651      0.493948      0.340502
H     10.62451      7.64558     15.10445         0.329283      0.811583      0.008256
H     10.62451     13.33282      5.87395         0.150086     -0.562641      0.199513
H     10.35389     13.33282     15.10445         0.022627     -0.284219     -0.165623
H      7.64558      5.87395     10.35389         0.360023      0.105504      0.055021
H      7.64558     15.10445     10.62451         0.386139     -0.126820      0.169175
H     13.33282      5.87395     10.62451        -0.309082      0.136092     -0.018287
H     13.33282     15.10445     10.35389        -0.669328     -0.087298      0.127085
H     12.45634     12.45634     19.01126         0.257059      0.271871     -0.227773
H     19.01126     19.01126     19.01126        -0.245889     -0.268568     -0.246505
H     19.01126     12.45634     12.45634        -0.250255      0.271774      0.235598
H     12.45634     19.01126     12.45634         0.289489     -0.236860      0.233951
C     10.35284      5.61067      6.59456         0.401478     -0.420822     -1.380549
C     10.62556     15.36773      6.59456        -0.146608      0.587223     -0.643156
C     10.62556      5.61067     14.38384         0.372380     -0.305541      0.796891
C     10.35284     15.36773     14.38384        -0.217055      0.188977      1.080529
C      6.59456     10.35284      5.61067        -1.419461      0.034204     -0.243804
C      6.59456     10.62556     15.36773        -0.649196      0.066053      0.365598
C     14.38384     10.62556      5.61067         1.288023     -0.174169     -0.643891
C     14.38384     10.35284     15.36773         0.331527     -0.123168      0.344047
C      5.61067      6.59456     10.35284        -0.283146     -0.692256     -0.028596
C     15.36773      6.59456     10.62556         0.416882     -0.913626      0.051253
C      5.61067     14.38384     10.62556        -0.144045      1.171338     -0.215953
C     15.36773     14.38384     10.35284         0.510150      0.685020     -0.025936
C      5.61067     10.35284      6.59456        -0.378191     -0.096561     -0.734087
C     15.36773     10.62556      6.59456         0.427324      0.109382     -0.744766
C      5.61067     10.62556     14.38384        -0.399974     -0.170978      1.226757
C     15.36773     10.35284     14.38384         0.261334      0.197147      1.477775
C     10.35284      6.59456      5.61067        -0.057754     -0.737662     -0.587907
C     10.62556      6.59456     15.36773        -0.140392     -0.978945      0.370772
C     10.62556     14.38384      5.61067        -0.479971      0.382051     -0.740190
C     10.35284     14.38384     15.36773        -0.162670      0.728728      0.462173
C      6.59456      5.61067     10.35284        -0.560164     -0.351624      0.005562
C      6.59456     15.36773     10.62556        -0.388657      0.451655      0.058980
C     14.38384      5.61067     10.62556         0.436412     -0.321870      0.002746
C     14.38384     15.36773     10.35284         1.142760      0.520617     -0.070948
C     10.40319      3.19606      7.29314        -0.003564      0.716940     -0.328618
C     10.35913      4.25547      6.23373         0.013801     -0.402189      0.283835
C      0.08601      7.29314      7.29314        -0.017879     -0.363927     -0.510113
C      0.13007      6.23373      6.23373        -0.052684      0.902002      0.084657
C      0.08601      3.19606      3.19606        -0.005219      0.701070      0.265651
C      0.13007      4.25547      4.25547         0.040259     -0.270023     -0.540512
C     10.40319      7.29314      3.19606        -0.066805     -1.142811      0.577976
C     10.35913      6.23373      4.25547        -0.040564      0.357954     -0.196181
C      7.29314     10.40319      3.19606        -1.110716     -0.059622      0.189671
C      6.23373     10.35913      4.25547         0.374298      0.087942     -0.536738
C      7.29314      0.08601      7.29314        -0.419812      0.033755     -0.509912
C      6.23373      0.13007      6.23373         0.180999      0.126240      0.129494
C      3.19606      0.08601      3.19606         0.721666      0.030104      0.163868
C      4.25547      0.13007      4.25547        -0.169408     -0.042790     -0.370844
C      3.19606     10.40319      7.29314         0.365080     -0.024324     -0.924559
C      4.25547     10.35913      6.23373        -0.138974     -0.068736      0.098548
C      3.19606      7.29314     10.40319         0.596378     -0.400658      0.001207
C      4.25547      6.23373     10.35913        -0.111801      0.189238      0.008968
C      7.29314      7.29314      0.08601        -0.423197     -0.308412     -0.017990
C      6.23373      6.23373      0.13007         0.154992      0.175068     -0.047191
C      3.19606      3.19606      0.08601         0.290940      0.486502     -0.026690
C      4.25547      4.25547      0.13007        -0.390964     -0.227096     -0.039849
C      7.29314      3.19606     10.40319        -0.273295      0.582768     -0.010422
C      6.23373      4.25547     10.35913         0.019178     -0.087492      0.017531
O     10.43466      3.58206      8.50569        -0.026207      0.086347      0.315245
O     10.54374     17.39634      8.50569         0.063983     -0.132335      0.609681
O     10.54374      3.58206     12.47271         0.028365      0.101725     -0.395804
O     10.43466     17.39634     12.47271         0.091783     -0.054324     -0.401376
O      8.50569     10.43466      3.58206         0.739249     -0.069798      0.009271
O      8.50569     10.54374     17.39634         0.471733      0.057034     -0.081512
O     12.47271     10.54374      3.58206        -0.665083      0.108006      0.212742
O     12.47271     10.43466     17.39634        -0.279368      0.003759      0.026131
O      3.58206      8.50569     10.43466         0.037948      0.451944     -0.064336
O     17.39634      8.50569     10.54374        -0.054026      0.454087      0.056105
O      3.58206     12.47271     10.54374         0.107692     -0.590345      0.002806
O     17.39634     12.47271     10.43466        -0.173325     -0.728437     -0.055145
O      3.58206     10.43466      8.50569         0.208938     -0.064116      0.799651
O     17.39634     10.54374      8.50569        -0.107760      0.075644      0.563749
O      3.58206     10.54374     12.47271        -0.007472     -0.004124     -0.254806
O     17.39634     10.43466     12.47271         0.045560     -0.012069     -0.212471
O     10.43466      8.50569      3.58206        -0.098421      0.547359     -0.103980
O     10.54374      8.50569     17.39634         0.062292      0.505801     -0.086318
O     10.54374     12.47271      3.58206         0.105026     -0.641948      0.131466
O     10.43466     12.47271     17.39634        -0.063556     -0.667539     -0.257953
O      8.50569      3.58206     10.43466         0.397001      0.027379     -0.039865
O      8.50569     17.39634     10.54374         0.638421     -0.156252      0.047331
O     12.47271      3.58206     10.54374        -0.511246      0.121933      0.031709
O     12.47271     17.39634     10.43466        -0.617266     -0.131988      0.038854
O     11.90042     11.90042     19.56718        -0.276910     -0.308334      0.227881
O     19.56718     19.56718     19.56718         0.305981      0.322347      0.300650
O     19.56718     11.90042     11.90042         0.284613     -0.328065     -0.232816
O     11.90042     19.56718     11.90042        -0.314402      0.230317     -0.200832
O      9.45224      1.03696      9.45224        -0.074678      0.078068     -0.080189
O      1.03696      9.45224      9.45224         0.093894     -0.109503     -0.057825
O      1.03696      1.03696      1.03696         0.081489      0.052698      0.100916
O      9.45224      9.45224      1.03696        -0.058296     -0.129878      0.133099
Zr     10.48920      2.52580     10.48920         0.037403     -0.081286      0.100460
Zr     10.48920     18.45260     10.48920        -0.175286      0.259352     -0.355235
Zr     10.48920     10.48920      2.52580         0.112794      0.361131     -0.354640
Zr     10.48920     10.48920     18.45260        -0.085931     -0.240186      0.216161
Zr      2.52580     10.48920     10.48920        -0.243792      0.136450      0.235157
Zr     18.45260     10.48920     10.48920         0.211298     -0.119104     -0.003263
Pd      9.38297     14.26809      9.35910        -0.013273      0.014995     -0.033953
Pd      8.60722     13.66955     12.96868        -0.001246     -0.017338      0.025236
Pd     12.02818     14.40185      8.72642         0.004194     -0.004973      0.007635
Pd     12.82584     12.86955     10.63296        -0.047801      0.018309      0.027656
Pd     12.11134      7.16970     12.65882         0.013870     -0.004337     -0.011780
Pd     11.21408     14.84047     11.50253        -0.029378      0.021350     -0.026839
Pd     10.10262     12.49199     11.10629        -0.047130      0.046976     -0.024407
Pd     13.47156     12.11825      7.97271         0.011080      0.017644      0.003147
Pd     11.47867     11.53863      6.10415         0.002665      0.001238     -0.001972
Pd      7.90714      8.50830      7.52745         0.007062     -0.048192      0.000601
Pd      8.72406     11.75220      6.85150        -0.007498      0.006227      0.001026
Pd     10.34720      9.45824      8.13569        -0.013622     -0.010150      0.001908
Pd      8.51057     14.46188      6.83539        -0.011166      0.000139     -0.024382
Pd     12.38829      8.99021      6.52341         0.005571      0.014245      0.015859
Pd      9.71877      9.61314      5.55959        -0.002645      0.001462      0.003349
Pd      6.83431      9.44347     12.17413        -0.009487      0.001185     -0.010215
Pd     12.18903      6.71547      7.92468        -0.006895      0.010751      0.004446
Pd      5.91991     10.46363      9.71921        -0.003587      0.002069     -0.004504
Pd      7.57922      7.20746     13.40441        -0.005761      0.018386     -0.004916
Ir     11.77609      9.75804     13.04548        -0.006900     -0.016304      0.014497
Ir     13.56308      9.00289     11.44007        -0.015918      0.014808      0.012504
Ir      9.45521      8.85453     13.97342        -0.037604     -0.030630      0.025794
Ir     10.55854     11.03135     14.83313        -0.017419     -0.013028      0.056269
Ir      7.28756     12.01147     11.34133         0.001294     -0.001042     -0.000579
Ir     14.68133     10.84335     10.09121        -0.005598      0.030805      0.016979
Ir     12.15678     10.55989      9.70997         0.003662     -0.013002     -0.034475
Ir      8.75842     11.00543     12.99989        -0.016958      0.045908     -0.017516
Ir     10.10898      9.88156     11.19597        -0.002137      0.007329     -0.035166
Ir     13.78670     11.37427     12.41493        -0.021438      0.013446      0.052942
Ir     11.68968     12.36277     13.07729        -0.071785     -0.008454      0.004466
Ir      8.50574     11.07866      9.34316        -0.011204      0.019291     -0.016269
Ir     11.57308      8.00740     10.11340        -0.000979      0.006227     -0.002061
Ir      7.22540     13.02014      8.67146         0.023283     -0.004544      0.004529
Ir      9.51425      6.98910      9.17384         0.016425      0.005206      0.044751
Ir      8.04119      8.75726     10.07787         0.010778     -0.005706      0.007492
Ir     10.72342     12.11258      8.50648        -0.006886      0.010088     -0.004904
Ir      9.51269      7.51907     11.72087        -0.000087      0.017659      0.014303
Ir     13.63156      8.79133      8.79422         0.008998      0.009336      0.034920
