26
# total energy = -177.59098432 eVH      0.05754      6.30200      7.50000         0.001794      0.016237     -0.000000
H      2.99867      1.78862      7.50000        -0.017788     -0.012996     -0.000000
H      5.48064      5.39894      7.50000        -0.015996      0.008434     -0.000000
H      8.41417     -2.58836      7.50000        -0.001794     -0.016237     -0.000000
H      5.47304      1.92503      7.50000         0.017788      0.012996     -0.000000
H      2.99107     -1.68529      7.50000         0.015996     -0.008434     -0.000000
C      7.53587      2.58925      7.50000        -0.005249      0.021589     -0.000000
C      1.42886     -0.24885      7.50000        -0.006927      0.000151      0.000000
C      7.97899     -4.69651      7.50000        -0.030267     -0.023192     -0.000000
C      0.93584      1.12440      7.50000         0.005249     -0.021589      0.000000
C      7.04285      3.96249      7.50000         0.006927     -0.000151      0.000000
C      0.49273      8.41016      7.50000         0.030267      0.023192     -0.000000
C      7.61081     -3.32130      7.50000         0.001858      0.051369      0.000000
C      6.51154      1.59348      7.50000        -0.014703     -0.000455      0.000000
C      2.79011     -0.60950      7.50000        -0.001789     -0.002893      0.000000
C      0.86090      7.03495      7.50000        -0.001858     -0.051369      0.000000
C      1.96017      2.12017      7.50000         0.014703      0.000455     -0.000000
C      5.68160      4.32314      7.50000         0.001789      0.002893      0.000000
O      6.41976     -2.80125      7.50000        -0.003273      0.002909      0.000000
O      6.70929      0.31223      7.50000        -0.010140     -0.012130     -0.000000
O      3.88996      0.10067      7.50000         0.007070      0.003521     -0.000000
O      2.05195      6.51490      7.50000         0.003273     -0.002909     -0.000000
O      1.76242      3.40142      7.50000         0.010140      0.012130     -0.000000
O      4.58175      3.61298      7.50000        -0.007070     -0.003521     -0.000000
Ir      5.43202     -1.16668      7.50000         0.023230      0.015069     -0.000000
Ir      3.03969      4.88032      7.50000        -0.023230     -0.015069     -0.000000
