152
# total energy = -1092.54447564 eVH     10.35389      5.87395      7.64558         0.614998     -0.271974      1.412859
H     10.62451     15.10445      7.64558        -0.656864      0.495419      1.858512
H     10.62451      5.87395     13.33282         0.308692     -0.140744     -1.571195
H     10.35389     15.10445     13.33282        -0.558457      0.221732     -1.702432
H      7.64558     10.35389      5.87395         0.389559     -0.006310     -0.019541
H      7.64558     10.62451     15.10445         0.437316     -0.034592      0.019172
H     13.33282     10.62451      5.87395        -0.545975     -0.008790      0.077516
H     13.33282     10.35389     15.10445        -0.455451      0.091918      0.020794
H      5.87395      7.64558     10.35389         0.053665      1.341676     -0.130773
H     15.10445      7.64558     10.62451        -0.013205      0.663501      0.010849
H      5.87395     13.33282     10.62451        -0.059791     -0.457205      0.020240
H     15.10445     13.33282     10.35389         0.321144     -1.674753      0.203743
H      5.87395     10.35389      7.64558        -0.285254     -0.385757      0.168415
H     15.10445     10.62451      7.64558         0.346103      0.409154     -0.048537
H      5.87395     10.62451     13.33282        -0.164758     -0.083028     -0.061052
H     15.10445     10.35389     13.33282         0.091574     -0.100807      0.086498
H     10.35389      7.64558      5.87395        -0.233429      0.393090     -0.025015
H     10.62451      7.64558     15.10445         0.088745      0.573692      0.276152
H     10.62451     13.33282      5.87395        -0.105906     -0.835064     -0.204012
H     10.35389     13.33282     15.10445        -0.205287     -0.601489      0.286498
H      7.64558      5.87395     10.35389         0.396762     -0.031028     -0.109895
H      7.64558     15.10445     10.62451         0.374401      0.037996     -0.127504
H     13.33282      5.87395     10.62451        -0.330071     -0.023761      0.034429
H     13.33282     15.10445     10.35389        -0.444977      0.211364     -0.065491
H     12.45634     12.45634     19.01126         0.260200      0.247425     -0.244008
H     19.01126     19.01126     19.01126        -0.256724     -0.246698     -0.249158
H     19.01126     12.45634     12.45634        -0.256940      0.265632      0.234312
H     12.45634     19.01126     12.45634         0.265623     -0.261229      0.228838
C     10.35284      5.61067      6.59456        -0.425366     -0.177823     -1.698314
C     10.62556     15.36773      6.59456         0.464953      0.122094     -1.997425
C     10.62556      5.61067     14.38384        -0.439211     -0.034255      1.730785
C     10.35284     15.36773     14.38384         0.459255      0.049443      1.911989
C      6.59456     10.35284      5.61067        -0.659748     -0.032996     -0.316949
C      6.59456     10.62556     15.36773        -0.851421     -0.038431      0.095845
C     14.38384     10.62556      5.61067         0.798721      0.003502     -0.116540
C     14.38384     10.35284     15.36773         0.762725      0.016766      0.204242
C      5.61067      6.59456     10.35284        -0.071970     -0.999486      0.053881
C     15.36773      6.59456     10.62556         0.159269     -1.035657      0.000266
C      5.61067     14.38384     10.62556        -0.229977      0.832899      0.015001
C     15.36773     14.38384     10.35284         0.049671      1.472530     -0.008340
C      5.61067     10.35284      6.59456        -0.749007      0.041696     -1.939126
C     15.36773     10.62556      6.59456         0.734692     -0.059253     -2.035948
C      5.61067     10.62556     14.38384        -0.745507      0.043452      1.871253
C     15.36773     10.35284     14.38384         0.611780     -0.084615      1.586019
C     10.35284      6.59456      5.61067         0.074138     -1.421795     -0.743916
C     10.62556      6.59456     15.36773        -0.048763     -1.668526      0.942901
C     10.62556     14.38384      5.61067         0.011874      1.769921     -0.993294
C     10.35284     14.38384     15.36773        -0.051638      1.784916      0.983340
C      6.59456      5.61067     10.35284        -0.496156     -0.903748     -0.138318
C      6.59456     15.36773     10.62556        -1.348064      0.755970      0.087521
C     14.38384      5.61067     10.62556         1.237858     -0.740062      0.031876
C     14.38384     15.36773     10.35284         0.494308      1.125142      0.022953
C     10.40319      3.19606      7.29314         0.015132      0.526306     -0.430394
C     10.35913      4.25547      6.23373         0.003938     -0.818892      0.468140
C      0.08601      7.29314      7.29314         0.024012     -0.497687     -0.501073
C      0.13007      6.23373      6.23373         0.004024      0.947988      0.526935
C      0.08601      3.19606      3.19606        -0.000410      0.592471      0.376976
C      0.13007      4.25547      4.25547        -0.031134     -0.938951     -0.451610
C     10.40319      7.29314      3.19606         0.046705     -0.516041      0.426706
C     10.35913      6.23373      4.25547         0.077060      0.695183     -0.498850
C      7.29314     10.40319      3.19606        -0.296168     -0.002554      0.559188
C      6.23373     10.35913      4.25547         0.199875     -0.055856     -0.256068
C      7.29314      0.08601      7.29314        -0.252079     -0.006897     -0.434689
C      6.23373      0.13007      6.23373         0.102972     -0.051504      0.432635
C      3.19606      0.08601      3.19606         0.315596      0.006626      0.511107
C      4.25547      0.13007      4.25547        -0.167576      0.052016     -0.313623
C      3.19606     10.40319      7.29314         0.276105      0.010995     -0.530930
C      4.25547     10.35913      6.23373        -0.203895      0.070634      0.524611
C      3.19606      7.29314     10.40319         0.226809     -0.400110     -0.004417
C      4.25547      6.23373     10.35913        -0.644130      0.295456      0.058565
C      7.29314      7.29314      0.08601        -0.545029     -0.285497      0.002196
C      6.23373      6.23373      0.13007         0.084234      0.287958     -0.031180
C      3.19606      3.19606      0.08601         0.483318      0.320135     -0.014267
C      4.25547      4.25547      0.13007        -0.054201     -0.166154     -0.029738
C      7.29314      3.19606     10.40319        -0.277832      0.500103     -0.017576
C      6.23373      4.25547     10.35913         0.793988     -0.373963      0.047457
O     10.43466      3.58206      8.50569        -0.004536      0.208330      0.413233
O     10.54374     17.39634      8.50569        -0.023667     -0.220714      0.451813
O     10.54374      3.58206     12.47271         0.074164      0.167922     -0.352319
O     10.43466     17.39634     12.47271        -0.119650     -0.205817     -0.355693
O      8.50569     10.43466      3.58206         0.415287     -0.029912      0.092850
O      8.50569     10.54374     17.39634         0.424875      0.054965     -0.122253
O     12.47271     10.54374      3.58206        -0.432562     -0.005224      0.110205
O     12.47271     10.43466     17.39634        -0.435741     -0.051802     -0.121295
O      3.58206      8.50569     10.43466         0.171599      0.456298     -0.050575
O     17.39634      8.50569     10.54374        -0.080671      0.460440      0.029903
O      3.58206     12.47271     10.54374         0.069612     -0.458035      0.047217
O     17.39634     12.47271     10.43466        -0.215765     -0.539413     -0.007185
O      3.58206     10.43466      8.50569         0.194861     -0.010023      0.499658
O     17.39634     10.54374      8.50569        -0.161187     -0.006505      0.472389
O      3.58206     10.54374     12.47271         0.237715      0.071758     -0.482682
O     17.39634     10.43466     12.47271        -0.201191     -0.022374     -0.552437
O     10.43466      8.50569      3.58206         0.032937      0.543698      0.261512
O     10.54374      8.50569     17.39634         0.063822      0.550790     -0.242942
O     10.54374     12.47271      3.58206        -0.004871     -0.635490      0.274577
O     10.43466     12.47271     17.39634        -0.037784     -0.556048     -0.254229
O      8.50569      3.58206     10.43466         0.539333      0.142841     -0.034843
O      8.50569     17.39634     10.54374         0.597033     -0.149203      0.051857
O     12.47271      3.58206     10.54374        -0.584409      0.162291     -0.002088
O     12.47271     17.39634     10.43466        -0.509941     -0.155514     -0.013816
O     11.90042     11.90042     19.56718        -0.300210     -0.292593      0.264938
O     19.56718     19.56718     19.56718         0.301950      0.282998      0.279399
O     19.56718     11.90042     11.90042         0.311403     -0.322426     -0.252369
O     11.90042     19.56718     11.90042        -0.312811      0.294750     -0.236713
O      9.45224      1.03696      9.45224        -0.047156      0.041225     -0.080042
O      1.03696      9.45224      9.45224         0.041115     -0.064529     -0.066992
O      1.03696      1.03696      1.03696         0.051149      0.039476      0.115175
O      9.45224      9.45224      1.03696        -0.040080     -0.074885      0.111176
Zr     10.48920      2.52580     10.48920        -0.126928     -0.091330      0.024986
Zr     10.48920     18.45260     10.48920         0.126149      0.161136     -0.088255
Zr     10.48920     10.48920      2.52580        -0.027154      0.075992     -0.281081
Zr     10.48920     10.48920     18.45260        -0.004886     -0.028146      0.174358
Zr      2.52580     10.48920     10.48920        -0.075717     -0.027878     -0.069746
Zr     18.45260     10.48920     10.48920         0.142288      0.080472     -0.075618
Pd     13.18383      8.25708      7.85604        -0.083603      0.028341     -0.013196
Pd      9.24393     14.51264     11.81257         0.108013      0.015061      0.066510
Pd     12.26619     11.11053     10.50472         0.054357      0.158588      0.019347
Pd     14.59859     10.55479     11.68968         0.163837     -0.073546     -0.119388
Pd     11.04491      9.27178      6.37551         0.110482     -0.124034     -0.118480
Pd      6.79297      8.13085      8.51435         0.111045      0.076052      0.196372
Ir     10.12013     11.86920     11.82639         0.111178      0.206238     -0.201908
Ir     13.09310      8.54393     10.51534        -0.151808     -0.302933      0.026886
Ir     12.25740     11.12374      7.86002         0.039588     -0.080356     -0.181926
Ir      9.37507     14.30770      9.13069         0.095007     -0.255951      0.152648
Ir     10.87281      9.30585     11.78894        -0.043765     -0.215435      0.036857
Ir      8.73284      9.85311      7.85509        -0.078364     -0.091249      0.023164
Ir     13.70335     12.80645      9.11832         0.143330     -0.087488     -0.144900
Ir     11.73509     13.64663      7.83797         0.062616     -0.124017      0.088837
Ir     14.35684     10.27420      9.17982        -0.107607     -0.054546     -0.035433
Ir      9.42290      7.33676     10.58552         0.139146      0.081408     -0.057517
Ir      8.00439     12.47095      7.85158        -0.017364      0.051379     -0.020098
Ir      9.29726      7.42234      8.07241        -0.091081      0.269323     -0.107640
Ir     11.61863     13.69101     13.10446         0.009613     -0.071606      0.020786
Ir     11.65024      6.87552     11.94671         0.148208      0.135888     -0.181251
Ir     10.09560     11.75208      9.17319         0.018366      0.131743      0.043032
Ir     13.11736      8.55872     13.14363        -0.117122     -0.012135     -0.058168
Ir     10.92528      9.17053      9.11533         0.040559     -0.152412     -0.007134
Ir     11.49781     13.73641     10.43968        -0.119119     -0.163767     -0.119182
Ir     13.59865     13.06566     11.86674         0.264806     -0.125594     -0.006201
Ir     12.34434     11.19763     13.15936        -0.152263     -0.077873      0.057217
Ir     10.07955     11.66265      6.58612        -0.049589     -0.181946     -0.068280
Ir     11.58688      6.69182      9.40291        -0.046220      0.062528     -0.017824
Ir      7.26759      8.10109     11.86066         0.102631      0.078635      0.014719
Ir      8.00121     12.57046     10.46088         0.074125     -0.155772      0.130243
Ir     10.99020      9.30714     14.32766        -0.006973      0.199299     -0.021460
Ir      7.94990     12.36794     13.03923        -0.193140      0.074475      0.085011
Ir      6.60361     10.77461      9.22479        -0.027096     -0.012758     -0.106089
Ir      8.70034      9.86962     13.16001        -0.000955     -0.102414     -0.149328
Ir      6.54652     10.61163     11.62424         0.047907      0.016772      0.178165
Ir      9.18498      7.29694     13.17709         0.075925      0.163386      0.010712
Ir     10.08694     11.64377     14.39445        -0.110127     -0.072773      0.121684
Ir      8.69772      9.85622     10.47852         0.127664      0.139151      0.181125
