15
# total energy = -105.19589253 eVC      1.40294      0.00026     10.00000         0.001253      0.004898      0.000000
C      5.43165      3.95102     10.00000        -0.001253     -0.004898      0.000000
C      6.13267     -2.72810     10.00000         0.002800      0.005025     -0.000000
C      0.70192      6.67939     10.00000        -0.002800     -0.005025      0.000000
C      6.13368      2.73653     10.00000         0.000738     -0.002090      0.000000
C      0.70091      1.21476     10.00000        -0.000738      0.002090     -0.000000
O      1.37940      2.39071     10.00000         0.005188      0.008207     -0.000000
O      5.45519      1.56057     10.00000        -0.005188     -0.008207      0.000000
O      4.07373      3.94991     10.00000         0.000697     -0.000007      0.000000
O      2.76087      0.00138     10.00000        -0.000697      0.000007      0.000000
O      1.38072      5.50321     10.00000        -0.000557      0.003183      0.000000
O      5.45388     -1.55192     10.00000         0.000557     -0.003183      0.000000
Pd      3.41730      1.97564     10.00000         0.000000      0.000000      0.000000
Pd      3.41730     -1.97139     10.00000         0.000000      0.000000      0.000000
Pd      0.00000      3.94703     10.00000         0.000000      0.000000      0.000000
