152
# total energy = -1061.45020146 eVH     10.35389      5.87395      7.64558        -0.180088      0.122417      1.024447
H     10.62451     15.10445      7.64558         0.435387     -0.112086      0.757333
H     10.62451      5.87395     13.33282        -0.101549      0.096014     -0.463398
H     10.35389     15.10445     13.33282         0.095243     -0.183120     -0.396567
H      7.64558     10.35389      5.87395         0.924229      0.198547      0.207772
H      7.64558     10.62451     15.10445         0.208998     -0.021635     -0.071515
H     13.33282     10.62451      5.87395        -0.615239     -0.044631      0.162876
H     13.33282     10.35389     15.10445        -0.325878     -0.063139     -0.068061
H      5.87395      7.64558     10.35389         0.129882      0.360850     -0.075055
H     15.10445      7.64558     10.62451        -0.136866      0.472395      0.195002
H      5.87395     13.33282     10.62451         0.111187     -0.621058      0.088875
H     15.10445     13.33282     10.35389        -0.232230     -0.433284      0.091461
H      5.87395     10.35389      7.64558         0.155661      0.264489      0.377315
H     15.10445     10.62451      7.64558        -0.132504     -0.400622      0.763943
H      5.87395     10.62451     13.33282         0.035190      0.147656     -0.700674
H     15.10445     10.35389     13.33282         0.095317     -0.269605     -0.759902
H     10.35389      7.64558      5.87395        -0.136868      0.439719      0.223431
H     10.62451      7.64558     15.10445         0.367101      0.613418     -0.118293
H     10.62451     13.33282      5.87395         0.115518     -0.571548      0.104710
H     10.35389     13.33282     15.10445         0.260101     -0.731930     -0.080013
H      7.64558      5.87395     10.35389         0.477305      0.146294     -0.154364
H      7.64558     15.10445     10.62451         0.402643     -0.154004      0.403486
H     13.33282      5.87395     10.62451        -0.383239      0.157916     -0.072146
H     13.33282     15.10445     10.35389        -0.578997     -0.290023      0.119668
H     12.45634     12.45634     19.01126         0.231905      0.264919     -0.247804
H     19.01126     19.01126     19.01126        -0.260582     -0.259807     -0.229826
H     19.01126     12.45634     12.45634        -0.233706      0.274561      0.237439
H     12.45634     19.01126     12.45634         0.276941     -0.211304      0.254591
C     10.35284      5.61067      6.59456         0.283527     -0.298100     -0.801528
C     10.62556     15.36773      6.59456        -0.215240      0.635764     -0.237327
C     10.62556      5.61067     14.38384         0.255256     -0.258514      0.494081
C     10.35284     15.36773     14.38384        -0.112091      0.273162      0.253331
C      6.59456     10.35284      5.61067        -0.873015     -0.104429     -0.240365
C      6.59456     10.62556     15.36773        -0.511567      0.043287      0.343546
C     14.38384     10.62556      5.61067         0.799982     -0.042749     -0.645777
C     14.38384     10.35284     15.36773         0.264473     -0.080680      0.363211
C      5.61067      6.59456     10.35284        -0.396903     -0.356173      0.075556
C     15.36773      6.59456     10.62556         0.300299     -0.523925     -0.083721
C      5.61067     14.38384     10.62556        -0.147411      0.527081     -0.363094
C     15.36773     14.38384     10.35284         0.417441      0.839402     -0.098779
C      5.61067     10.35284      6.59456        -0.314699     -0.152054     -0.101748
C     15.36773     10.62556      6.59456         0.225426      0.300870     -0.596082
C      5.61067     10.62556     14.38384        -0.335392     -0.040639      1.199051
C     15.36773     10.35284     14.38384         0.285340     -0.051984      1.020898
C     10.35284      6.59456      5.61067         0.083363     -0.259710     -0.505769
C     10.62556      6.59456     15.36773         0.012965     -0.784116      0.154838
C     10.62556     14.38384      5.61067        -0.386565      0.146309     -0.885056
C     10.35284     14.38384     15.36773        -0.259714      0.864060      0.265023
C      6.59456      5.61067     10.35284        -0.346019     -0.284381      0.255302
C      6.59456     15.36773     10.62556        -0.338493      0.540993     -0.032095
C     14.38384      5.61067     10.62556         0.462647     -0.360036      0.061417
C     14.38384     15.36773     10.35284         0.962698      0.266276     -0.060502
C     10.40319      3.19606      7.29314         0.006352      0.555266     -0.317369
C     10.35913      4.25547      6.23373        -0.013303     -0.524178      0.430769
C      0.08601      7.29314      7.29314        -0.013497     -0.862045     -0.554879
C      0.13007      6.23373      6.23373        -0.175414      0.865574      0.142137
C      0.08601      3.19606      3.19606        -0.012523      0.398087      0.380891
C      0.13007      4.25547      4.25547         0.059375     -0.205322     -0.591791
C     10.40319      7.29314      3.19606        -0.049333     -1.077127      0.753782
C     10.35913      6.23373      4.25547         0.011155      0.344991     -0.214735
C      7.29314     10.40319      3.19606        -1.258680     -0.082807      0.325538
C      6.23373     10.35913      4.25547         0.274775      0.021855     -0.706868
C      7.29314      0.08601      7.29314        -0.835515     -0.000955     -0.413960
C      6.23373      0.13007      6.23373         0.334703      0.055626      0.129029
C      3.19606      0.08601      3.19606         0.327228      0.000556      0.430349
C      4.25547      0.13007      4.25547        -0.287383     -0.034780     -0.182153
C      3.19606     10.40319      7.29314         0.499857     -0.042303     -1.017735
C      4.25547     10.35913      6.23373        -0.313690     -0.072179      0.101008
C      3.19606      7.29314     10.40319         1.066920     -0.454113      0.007127
C      4.25547      6.23373     10.35913        -0.191747      0.165747     -0.003067
C      7.29314      7.29314      0.08601        -0.477198     -0.280412     -0.007241
C      6.23373      6.23373      0.13007         0.191564      0.135963     -0.147510
C      3.19606      3.19606      0.08601         0.349936      0.852268     -0.007915
C      4.25547      4.25547      0.13007        -0.534601     -0.191300      0.043592
C      7.29314      3.19606     10.40319        -0.195955      0.507349      0.025458
C      6.23373      4.25547     10.35913        -0.010308     -0.362681      0.044814
O     10.43466      3.58206      8.50569        -0.022044      0.133318      0.386573
O     10.54374     17.39634      8.50569         0.042311      0.053661      0.361677
O     10.54374      3.58206     12.47271         0.042050      0.195244     -0.572041
O     10.43466     17.39634     12.47271         0.027430     -0.005018     -0.440509
O      8.50569     10.43466      3.58206         0.758818     -0.063634      0.005623
O      8.50569     10.54374     17.39634         0.854258      0.023069     -0.160800
O     12.47271     10.54374      3.58206        -0.347654      0.038426      0.077635
O     12.47271     10.43466     17.39634        -0.382561     -0.035504      0.036699
O      3.58206      8.50569     10.43466        -0.098689      0.273461     -0.076950
O     17.39634      8.50569     10.54374        -0.110355      0.445476      0.040696
O      3.58206     12.47271     10.54374         0.145825     -0.806607     -0.017936
O     17.39634     12.47271     10.43466        -0.241468     -0.638870     -0.014067
O      3.58206     10.43466      8.50569         0.127146     -0.034300      0.786846
O     17.39634     10.54374      8.50569         0.004598      0.034732      0.337991
O      3.58206     10.54374     12.47271         0.067446      0.017884     -0.461650
O     17.39634     10.43466     12.47271         0.037101      0.012969     -0.251924
O     10.43466      8.50569      3.58206        -0.059036      0.592388     -0.065666
O     10.54374      8.50569     17.39634         0.026553      0.876935     -0.204866
O     10.54374     12.47271      3.58206         0.067674     -0.369226      0.080033
O     10.43466     12.47271     17.39634        -0.055959     -0.643317     -0.198549
O      8.50569      3.58206     10.43466         0.344855      0.079436     -0.052660
O      8.50569     17.39634     10.54374         0.548292     -0.159025     -0.010310
O     12.47271      3.58206     10.54374        -0.366883      0.055098      0.034338
O     12.47271     17.39634     10.43466        -0.833246     -0.148791      0.065446
O     11.90042     11.90042     19.56718        -0.245108     -0.282362      0.237371
O     19.56718     19.56718     19.56718         0.298587      0.294908      0.250637
O     19.56718     11.90042     11.90042         0.229705     -0.304414     -0.278660
O     11.90042     19.56718     11.90042        -0.274820      0.179961     -0.273196
O      9.45224      1.03696      9.45224        -0.110891      0.090494     -0.083928
O      1.03696      9.45224      9.45224         0.127516     -0.147843     -0.169645
O      1.03696      1.03696      1.03696         0.137655      0.205961     -0.001837
O      9.45224      9.45224      1.03696        -0.210083     -0.169430      0.032219
Zr     10.48920      2.52580     10.48920        -0.002454     -0.232526      0.151549
Zr     10.48920     18.45260     10.48920        -0.304141      0.306192     -0.158753
Zr     10.48920     10.48920      2.52580         0.343059      0.410436     -0.230340
Zr     10.48920     10.48920     18.45260         0.002412      0.014297      0.469880
Zr      2.52580     10.48920     10.48920        -0.554065      0.028719      0.333307
Zr     18.45260     10.48920     10.48920         0.276291     -0.147688      0.006113
Pd      9.18424     14.61568      9.21163        -0.003091      0.023260      0.002370
Pd      8.47916     13.22281     13.82485        -0.025031      0.009567      0.021500
Pd     12.16676     14.09996      8.65201        -0.017878      0.013063      0.008432
Pd     12.25920     12.75022     10.90834         0.000069      0.015783     -0.020080
Pd     11.79481      7.09088     11.91815         0.006416     -0.018471     -0.011513
Pd     11.16140     15.30247     10.89751         0.009429      0.022102     -0.001758
Pd      9.62389     13.15950     11.41796        -0.000723     -0.010250     -0.029241
Pd     14.05054     12.38473      7.96259        -0.026482     -0.004911      0.023414
Pd     11.58704     11.76756      6.75735         0.002227      0.006895      0.001448
Pd      7.47805      8.55144      7.18021        -0.028787     -0.016493     -0.008732
Pd      8.63496     12.04798      6.91095        -0.008681      0.026990     -0.011771
Pd      9.75752      9.89183      8.00996        -0.013091     -0.009852      0.015000
Pd      8.47980     14.69237      6.56521         0.009944      0.027383      0.001019
Pd     12.06388      9.05456      6.85111        -0.006792     -0.002047     -0.000631
Pd      9.93711     10.01462      5.40686        -0.012252      0.003821     -0.002720
Pd      6.91944      9.22943     12.17024        -0.017835     -0.008183      0.000528
Pd     12.41527      6.52101      7.68339        -0.012455      0.021608     -0.004413
Pd      5.57779     10.67915     10.11572         0.008998     -0.006308     -0.007500
Pd      7.57005      6.67446     12.70134         0.016641      0.004920      0.005959
Ir     11.29514      9.54949     12.85348         0.015184      0.010068      0.003765
Ir     13.09077      9.24133     11.09543        -0.012338      0.018536     -0.017171
Ir      9.15829      8.43369     13.75577        -0.009987     -0.022567     -0.009300
Ir     10.28227     10.37718     15.08037        -0.009208     -0.009174     -0.008104
Ir      7.11387     11.91330     11.84668        -0.005457     -0.000276     -0.000757
Ir     14.42260     11.19579     10.32834        -0.016099     -0.000221     -0.006219
Ir     12.29008     10.62177      9.06732         0.026488     -0.025283      0.004711
Ir      8.94035     10.80470     12.89926        -0.000546     -0.001889      0.017684
Ir     10.03641     10.27897     10.62909        -0.013090      0.005356     -0.021513
Ir     13.31898     11.20908     12.62554        -0.013606     -0.012692     -0.007245
Ir     11.11163     12.04780     13.34635         0.005379     -0.013147     -0.003904
Ir      7.96398     11.72015      9.51738         0.004796     -0.001124      0.013723
Ir     11.29701      8.14867      9.45848        -0.030220     -0.005568      0.019753
Ir      6.96692     13.53977      8.33734         0.005734      0.025761      0.006708
Ir      9.07755      7.29006      8.79153         0.016928     -0.010357      0.029574
Ir      7.75243      9.20781      9.70786        -0.008913      0.006253      0.003306
Ir     10.37121     12.32804      8.99356         0.002387      0.000824     -0.013038
Ir      9.33646      7.88834     11.25349        -0.020070      0.002801     -0.003355
Ir     13.75805      8.46166      8.81127         0.017999      0.015122     -0.018692
