152
# total energy = -1002.81840557 eVH     10.35389      5.87395      7.64558        -0.005003      0.141741      1.046506
H     10.62451     15.10445      7.64558        -0.000976     -0.089190      1.057477
H     10.62451      5.87395     13.33282         0.095325      0.009256     -1.135630
H     10.35389     15.10445     13.33282        -0.178182     -0.165301     -0.955915
H      7.64558     10.35389      5.87395         0.889712      0.345682     -0.233188
H      7.64558     10.62451     15.10445         0.742266      0.301171      0.071554
H     13.33282     10.62451      5.87395        -0.532826      0.161526      0.013806
H     13.33282     10.35389     15.10445        -0.681959     -0.141654      0.056215
H      5.87395      7.64558     10.35389        -0.399139      2.208647      0.320065
H     15.10445      7.64558     10.62451         0.054036      1.456995      0.085963
H      5.87395     13.33282     10.62451         0.014405     -1.009242     -0.171341
H     15.10445     13.33282     10.35389         0.115617     -1.177732     -0.349188
H      5.87395     10.35389      7.64558        -0.839714      0.343782      1.342981
H     15.10445     10.62451      7.64558         0.253266      0.678688      1.539350
H      5.87395     10.62451     13.33282        -0.555628      0.500808     -1.305712
H     15.10445     10.35389     13.33282         1.219537     -0.088822     -1.195024
H     10.35389      7.64558      5.87395         0.456955      1.190008     -0.046812
H     10.62451      7.64558     15.10445         0.296601      0.713916     -0.070114
H     10.62451     13.33282      5.87395        -0.410266     -0.962706      0.011009
H     10.35389     13.33282     15.10445        -0.135813     -0.498034     -0.150942
H      7.64558      5.87395     10.35389         0.765110     -0.156985     -0.001486
H      7.64558     15.10445     10.62451         0.539299     -0.162301     -0.063151
H     13.33282      5.87395     10.62451        -1.007844      0.042575      0.269308
H     13.33282     15.10445     10.35389        -0.430536     -0.089539     -0.060274
H     12.45634     12.45634     19.01126         0.260860      0.235428     -0.246324
H     19.01126     19.01126     19.01126        -0.256836     -0.251679     -0.236917
H     19.01126     12.45634     12.45634        -0.256564      0.266917      0.232077
H     12.45634     19.01126     12.45634         0.264378     -0.264922      0.225592
C     10.35284      5.61067      6.59456        -0.127573     -0.916432     -0.967244
C     10.62556     15.36773      6.59456        -0.058129      0.484390     -0.899067
C     10.62556      5.61067     14.38384        -0.176433     -0.572313      1.521316
C     10.35284     15.36773     14.38384         0.157544      0.302879      0.963705
C      6.59456     10.35284      5.61067        -1.751828      0.173897     -1.051343
C      6.59456     10.62556     15.36773        -1.072624      0.226691      0.823355
C     14.38384     10.62556      5.61067         1.591706      0.148690     -0.915874
C     14.38384     10.35284     15.36773         1.177046      0.005238      0.777434
C      5.61067      6.59456     10.35284        -0.648874     -1.561628     -0.004284
C     15.36773      6.59456     10.62556         0.569043     -0.604132      0.122346
C      5.61067     14.38384     10.62556        -0.334734      1.105222      0.074605
C     15.36773     14.38384     10.35284         0.283799      1.377228      0.085680
C      5.61067     10.35284      6.59456        -0.380670     -0.010239     -1.671369
C     15.36773     10.62556      6.59456         0.470722      0.019399     -1.299303
C      5.61067     10.62556     14.38384        -0.243157     -0.057437      1.464975
C     15.36773     10.35284     14.38384         0.097545     -0.030282      1.768930
C     10.35284      6.59456      5.61067        -0.028084     -1.069202     -0.658830
C     10.62556      6.59456     15.36773         0.089491     -0.670765      0.634126
C     10.62556     14.38384      5.61067         0.123220      0.786541     -0.505471
C     10.35284     14.38384     15.36773        -0.042438      0.474931      0.451733
C      6.59456      5.61067     10.35284        -0.412633     -1.210956      0.005855
C      6.59456     15.36773     10.62556        -0.689053      0.647055     -0.002960
C     14.38384      5.61067     10.62556         0.596193     -0.817165     -0.101455
C     14.38384     15.36773     10.35284         0.432268      0.536431     -0.042969
C     10.40319      3.19606      7.29314        -0.023537      0.323038     -0.816714
C     10.35913      4.25547      6.23373        -0.054084     -0.525592      0.161642
C      0.08601      7.29314      7.29314        -0.012448     -0.498057     -0.324662
C      0.13007      6.23373      6.23373        -0.035907      0.397785      0.328727
C      0.08601      3.19606      3.19606         0.004861      0.407852      0.527044
C      0.13007      4.25547      4.25547        -0.001597     -0.446458     -0.435032
C     10.40319      7.29314      3.19606        -0.047267     -0.761606      0.259544
C     10.35913      6.23373      4.25547         0.008040      0.271151     -0.617698
C      7.29314     10.40319      3.19606        -0.706940     -0.015106      0.138992
C      6.23373     10.35913      4.25547         0.354817     -0.035847     -0.410808
C      7.29314      0.08601      7.29314        -0.547657     -0.066243     -0.283694
C      6.23373      0.13007      6.23373         0.530296     -0.158862      0.295567
C      3.19606      0.08601      3.19606         0.737305     -0.041355      0.210474
C      4.25547      0.13007      4.25547        -0.464757     -0.241720     -0.461608
C      3.19606     10.40319      7.29314         0.355761      0.002004     -0.178079
C      4.25547     10.35913      6.23373        -0.283127     -0.027817      0.379436
C      3.19606      7.29314     10.40319         0.285689     -0.424386      0.004436
C      4.25547      6.23373     10.35913        -0.850869      0.171154      0.078004
C      7.29314      7.29314      0.08601        -0.408855     -0.375742     -0.016615
C      6.23373      6.23373      0.13007         0.754873      0.070633     -0.017022
C      3.19606      3.19606      0.08601         0.748094      0.320926     -0.015451
C      4.25547      4.25547      0.13007        -0.306976     -0.684883     -0.064472
C      7.29314      3.19606     10.40319        -0.360681      0.427792      0.012580
C      6.23373      4.25547     10.35913         0.422271     -0.491135      0.072570
O     10.43466      3.58206      8.50569         0.081434      0.244475      0.708819
O     10.54374     17.39634      8.50569         0.016816     -0.151828      0.415973
O     10.54374      3.58206     12.47271         0.094776      0.175265     -0.542900
O     10.43466     17.39634     12.47271        -0.030354     -0.086182     -0.343928
O      8.50569     10.43466      3.58206         0.688927     -0.089541      0.226213
O      8.50569     10.54374     17.39634         0.638291     -0.019810     -0.239372
O     12.47271     10.54374      3.58206        -0.725314      0.076150      0.273129
O     12.47271     10.43466     17.39634        -0.501766      0.015224     -0.223068
O      3.58206      8.50569     10.43466         0.174701      0.579205     -0.022398
O     17.39634      8.50569     10.54374        -0.154467      0.517601      0.038248
O      3.58206     12.47271     10.54374         0.084099     -0.407114      0.033313
O     17.39634     12.47271     10.43466        -0.168833     -0.536206     -0.029640
O      3.58206     10.43466      8.50569         0.160454     -0.023154      0.332881
O     17.39634     10.54374      8.50569        -0.111317      0.071161      0.369353
O      3.58206     10.54374     12.47271         0.063799      0.051447     -0.269855
O     17.39634     10.43466     12.47271        -0.061372     -0.019624     -0.213805
O     10.43466      8.50569      3.58206        -0.089999      0.706115      0.183571
O     10.54374      8.50569     17.39634        -0.014009      0.597123     -0.192412
O     10.54374     12.47271      3.58206         0.033953     -0.498816      0.104705
O     10.43466     12.47271     17.39634        -0.019720     -0.384213     -0.054334
O      8.50569      3.58206     10.43466         0.582087      0.142864     -0.041011
O      8.50569     17.39634     10.54374         0.579690     -0.178408      0.035593
O     12.47271      3.58206     10.54374        -0.742465      0.166996      0.022169
O     12.47271     17.39634     10.43466        -0.526253     -0.142507     -0.027659
O     11.90042     11.90042     19.56718        -0.303404     -0.250091      0.273460
O     19.56718     19.56718     19.56718         0.302164      0.311529      0.270398
O     19.56718     11.90042     11.90042         0.313403     -0.304561     -0.239491
O     11.90042     19.56718     11.90042        -0.316569      0.329609     -0.222048
O      9.45224      1.03696      9.45224        -0.020744      0.097824     -0.077179
O      1.03696      9.45224      9.45224         0.046196     -0.016933     -0.086933
O      1.03696      1.03696      1.03696         0.033678      0.089385      0.102135
O      9.45224      9.45224      1.03696        -0.050049     -0.024519      0.130357
Zr     10.48920      2.52580     10.48920        -0.175399     -0.305057      0.089416
Zr     10.48920     18.45260     10.48920         0.077391      0.086396     -0.040800
Zr     10.48920     10.48920      2.52580         0.026053      0.065745     -0.382927
Zr     10.48920     10.48920     18.45260         0.012232     -0.054711      0.253934
Zr      2.52580     10.48920     10.48920        -0.085407     -0.121526     -0.031198
Zr     18.45260     10.48920     10.48920         0.095858     -0.007975     -0.056634
Pd     11.84232      8.56207     10.33112         0.168057     -0.008085      0.008314
Pd      7.19072     10.06913     10.41493         0.068389     -0.061545      0.090096
Pd      7.23629     12.44847     11.75840         0.054263     -0.095561      0.028088
Pd     12.04155     13.34495      7.36930        -0.068207      0.006560      0.062139
Pd     11.47918      8.26575      7.55280        -0.077657     -0.123338     -0.142071
Pd      8.78293      7.28807      7.23138         0.030519     -0.035395     -0.008244
Pd     11.63411     10.95477      6.20755        -0.121167      0.073957     -0.050137
Pd     13.73814      9.37150      7.63325         0.121601      0.267692     -0.122371
Pd      9.48369     11.84426      7.47934        -0.096786     -0.000515      0.038847
Pd      7.09984      7.69369     11.78713         0.000181     -0.092441      0.169610
Pd      6.87634      7.67524      8.85001         0.132442     -0.072132     -0.044816
Pd      7.50980      9.93102     13.04017        -0.054603     -0.135838     -0.131433
Pd     11.44521      6.06364      9.15090         0.036227     -0.137717     -0.046113
Pd      9.47914      9.58746      5.98336         0.030432     -0.065316     -0.032922
Pd      9.32615     14.13112      8.81592        -0.046517      0.035158     -0.016040
Pd     11.49413      6.36649     11.78195         0.029871      0.000867      0.005854
Pd      9.66345      9.33578      9.01151        -0.045390      0.054529     -0.001532
Pd      9.37639     11.74935     10.17625        -0.114530     -0.015086      0.087596
Pd      9.33243      7.09378     10.29059        -0.115242     -0.022372      0.057666
Pd      9.17581      7.26322     13.26154        -0.071972      0.023856      0.087737
Pd      9.56207      9.38431     11.63850        -0.205325      0.060327      0.056924
Pd     11.74336     10.90674      8.83398         0.108954     -0.003351      0.017487
Pd      7.14335     12.47099      8.97261         0.039709     -0.046285     -0.079602
Pd      7.58003      9.94660      7.87758         0.039734      0.160435     -0.080144
Pd     13.83389      7.21660      8.96648        -0.057055     -0.200327      0.032071
Pd     13.82676      7.86121     12.13224        -0.057712     -0.074312     -0.079557
Pd      9.44831     11.83288     13.03329        -0.037382     -0.083228      0.006803
Pd     13.99408     12.27356      8.78208         0.140695      0.062025     -0.074409
Pd     13.49259     10.43428     12.81911        -0.312638     -0.015318     -0.155746
Pd     14.03631     10.01294     10.25812        -0.051220      0.007400      0.015919
Pd     11.52059     11.13545     11.46221         0.248347     -0.096827      0.083435
Pd     11.61550     13.42531     10.00126         0.045933      0.008803      0.120249
Pd     13.74688     12.63966     11.46090        -0.057171      0.018120     -0.017393
Pd     11.68175     13.49588     12.87332         0.090579     -0.006682     -0.084536
Pd     11.58372     11.33374     14.45849         0.087797     -0.085549     -0.005623
Pd     11.54152      8.72697     13.19715         0.114814      0.069157     -0.030754
Pd      9.53710      9.60778     14.70658         0.050552      0.017610      0.138062
Pd      9.42856     14.09235     11.46650        -0.052820      0.004780      0.119531
