33
# total energy = -231.16719218 eVH      9.31223      4.28446      7.50000         0.027709      0.015890      0.000000
H      0.88997      5.91774      7.50000        -0.027709     -0.015890      0.000000
H      5.91774      9.31223      7.50000        -0.015890      0.027709      0.000000
H      4.28446      0.88997      7.50000         0.015890     -0.027709      0.000000
H      0.88997      4.28446      7.50000        -0.027709      0.015890      0.000000
H      9.31223      5.91774      7.50000         0.027709     -0.015890      0.000000
H      4.28446      9.31223      7.50000         0.015890      0.027709     -0.000000
H      5.91774      0.88997      7.50000        -0.015890     -0.027709      0.000000
C     -0.00000      1.94785      7.50000         0.000000     -0.002276      0.000000
C      0.00000      8.25435      7.50000         0.000000      0.002276      0.000000
C      8.25435      0.00000      7.50000         0.002276     -0.000000      0.000000
C      1.94785     -0.00000      7.50000        -0.002276      0.000000      0.000000
C      8.83782      2.45042      7.50000        -0.013935      0.002401      0.000000
C      1.36438      7.75178      7.50000         0.013935     -0.002401     -0.000000
C      7.75178      8.83782      7.50000        -0.002401     -0.013935      0.000000
C      2.45042      1.36438      7.50000         0.002401      0.013935     -0.000000
C      1.36438      2.45042      7.50000         0.013935      0.002401     -0.000000
C      8.83782      7.75178      7.50000        -0.013935     -0.002401      0.000000
C      2.45042      8.83782      7.50000         0.002401     -0.013935     -0.000000
C      7.75178      1.36438      7.50000        -0.002401      0.013935      0.000000
N      8.45805      3.72214      7.50000         0.016856     -0.012288      0.000000
N      1.74415      6.48006      7.50000        -0.016856      0.012288     -0.000000
N      6.48006      8.45805      7.50000         0.012288      0.016856     -0.000000
N      3.72214      1.74415      7.50000        -0.012288     -0.016856      0.000000
N      1.74415      3.72214      7.50000        -0.016856     -0.012288     -0.000000
N      8.45805      6.48006      7.50000         0.016856      0.012288      0.000000
N      3.72214      8.45805      7.50000        -0.012288      0.016856     -0.000000
N      6.48006      1.74415      7.50000         0.012288     -0.016856     -0.000000
Ir      5.10110      6.75815      7.50000        -0.000000      0.004950     -0.000000
Ir      5.10110      3.44405      7.50000        -0.000000     -0.004950      0.000000
Ir      3.44405      5.10110      7.50000        -0.004950      0.000000      0.000000
Ir      6.75815      5.10110      7.50000         0.004950      0.000000      0.000000
Ir     -0.00000     -0.00000      7.50000        -0.000000     -0.000000      0.000000
