152
# total energy = -1060.03017708 eVH     10.35389      5.87395      7.64558        -0.271612      0.002765      1.152008
H     10.62451     15.10445      7.64558         0.060971     -0.086655      0.930002
H     10.62451      5.87395     13.33282        -0.250246      0.084393     -0.791047
H     10.35389     15.10445     13.33282         0.106237     -0.299517     -0.899080
H      7.64558     10.35389      5.87395         0.940715     -0.121437      0.176259
H      7.64558     10.62451     15.10445         0.331412     -0.041509     -0.076539
H     13.33282     10.62451      5.87395        -0.881699      0.226839      0.204355
H     13.33282     10.35389     15.10445        -0.278418     -0.011563     -0.069618
H      5.87395      7.64558     10.35389         0.089818      0.420243     -0.007278
H     15.10445      7.64558     10.62451         0.008261      0.501903     -0.028899
H      5.87395     13.33282     10.62451        -0.018912     -0.954034      0.073712
H     15.10445     13.33282     10.35389        -0.080533     -0.320315      0.004450
H      5.87395     10.35389      7.64558         0.269666      0.121929      0.413881
H     15.10445     10.62451      7.64558        -0.123857     -0.177731      0.655906
H      5.87395     10.62451     13.33282        -0.082686      0.447330     -0.627218
H     15.10445     10.35389     13.33282         0.256925     -0.645135     -0.816804
H     10.35389      7.64558      5.87395        -0.050629      0.472127      0.325493
H     10.62451      7.64558     15.10445         0.215715      0.736261     -0.045908
H     10.62451     13.33282      5.87395         0.130510     -0.573027      0.204378
H     10.35389     13.33282     15.10445         0.036467     -0.283310     -0.139441
H      7.64558      5.87395     10.35389         0.336527      0.094098      0.022511
H      7.64558     15.10445     10.62451         0.373050     -0.116552      0.153278
H     13.33282      5.87395     10.62451        -0.317278      0.129022     -0.036937
H     13.33282     15.10445     10.35389        -0.652629     -0.133071      0.145841
H     12.45634     12.45634     19.01126         0.254912      0.270838     -0.229527
H     19.01126     19.01126     19.01126        -0.245502     -0.268493     -0.245796
H     19.01126     12.45634     12.45634        -0.251403      0.269660      0.234330
H     12.45634     19.01126     12.45634         0.291458     -0.236369      0.233430
C     10.35284      5.61067      6.59456         0.391090     -0.423912     -1.461574
C     10.62556     15.36773      6.59456        -0.152958      0.584482     -0.631330
C     10.62556      5.61067     14.38384         0.384062     -0.340849      0.845712
C     10.35284     15.36773     14.38384        -0.237225      0.219072      1.108058
C      6.59456     10.35284      5.61067        -1.381275      0.018216     -0.240870
C      6.59456     10.62556     15.36773        -0.645750      0.058127      0.386312
C     14.38384     10.62556      5.61067         1.326441     -0.184122     -0.629594
C     14.38384     10.35284     15.36773         0.372191     -0.122416      0.356575
C      5.61067      6.59456     10.35284        -0.290975     -0.644478     -0.017760
C     15.36773      6.59456     10.62556         0.424370     -0.983152      0.032592
C      5.61067     14.38384     10.62556        -0.134534      1.160620     -0.179785
C     15.36773     14.38384     10.35284         0.452851      0.645683     -0.024169
C      5.61067     10.35284      6.59456        -0.371584     -0.097166     -0.703062
C     15.36773     10.62556      6.59456         0.422476      0.125293     -0.739696
C      5.61067     10.62556     14.38384        -0.380322     -0.169440      1.214968
C     15.36773     10.35284     14.38384         0.281023      0.192783      1.496353
C     10.35284      6.59456      5.61067        -0.048980     -0.697883     -0.620530
C     10.62556      6.59456     15.36773        -0.082142     -0.815895      0.350713
C     10.62556     14.38384      5.61067        -0.462991      0.407200     -0.706036
C     10.35284     14.38384     15.36773        -0.150559      0.593695      0.414596
C      6.59456      5.61067     10.35284        -0.515343     -0.342976      0.028430
C      6.59456     15.36773     10.62556        -0.385881      0.459102      0.052015
C     14.38384      5.61067     10.62556         0.445793     -0.381320      0.003281
C     14.38384     15.36773     10.35284         1.118074      0.495620     -0.070906
C     10.40319      3.19606      7.29314         0.002080      0.650164     -0.334055
C     10.35913      4.25547      6.23373         0.008184     -0.446389      0.284980
C      0.08601      7.29314      7.29314        -0.012861     -0.358455     -0.500615
C      0.13007      6.23373      6.23373        -0.074675      0.835989      0.054164
C      0.08601      3.19606      3.19606        -0.001600      0.677767      0.270500
C      0.13007      4.25547      4.25547         0.025581     -0.265320     -0.543367
C     10.40319      7.29314      3.19606        -0.067238     -1.179250      0.562597
C     10.35913      6.23373      4.25547        -0.035545      0.370109     -0.202733
C      7.29314     10.40319      3.19606        -1.095219     -0.059238      0.185511
C      6.23373     10.35913      4.25547         0.367311      0.080134     -0.544458
C      7.29314      0.08601      7.29314        -0.412536      0.033314     -0.553925
C      6.23373      0.13007      6.23373         0.176420      0.132716      0.130827
C      3.19606      0.08601      3.19606         0.709439      0.025313      0.159042
C      4.25547      0.13007      4.25547        -0.170204     -0.055685     -0.371392
C      3.19606     10.40319      7.29314         0.383328     -0.025126     -0.866696
C      4.25547     10.35913      6.23373        -0.160369     -0.084619      0.094220
C      3.19606      7.29314     10.40319         0.603096     -0.391446      0.002309
C      4.25547      6.23373     10.35913        -0.111180      0.186292     -0.001829
C      7.29314      7.29314      0.08601        -0.404911     -0.324490     -0.015269
C      6.23373      6.23373      0.13007         0.192974      0.190506     -0.059735
C      3.19606      3.19606      0.08601         0.289134      0.479110     -0.023769
C      4.25547      4.25547      0.13007        -0.396098     -0.228102     -0.029991
C      7.29314      3.19606     10.40319        -0.280823      0.589320     -0.012779
C      6.23373      4.25547     10.35913         0.005750     -0.115850      0.020846
O     10.43466      3.58206      8.50569        -0.029395      0.099461      0.324426
O     10.54374     17.39634      8.50569         0.064375     -0.132995      0.592326
O     10.54374      3.58206     12.47271         0.027520      0.107583     -0.392273
O     10.43466     17.39634     12.47271         0.087691     -0.039580     -0.366898
O      8.50569     10.43466      3.58206         0.708202     -0.056372      0.003647
O      8.50569     10.54374     17.39634         0.454767      0.056405     -0.071318
O     12.47271     10.54374      3.58206        -0.652244      0.116999      0.205363
O     12.47271     10.43466     17.39634        -0.282513     -0.005525      0.013636
O      3.58206      8.50569     10.43466         0.043079      0.463802     -0.067985
O     17.39634      8.50569     10.54374        -0.062651      0.460669      0.055154
O      3.58206     12.47271     10.54374         0.115987     -0.585113      0.001295
O     17.39634     12.47271     10.43466        -0.168260     -0.738441     -0.060466
O      3.58206     10.43466      8.50569         0.216324     -0.062580      0.775679
O     17.39634     10.54374      8.50569        -0.114358      0.075715      0.590227
O      3.58206     10.54374     12.47271        -0.001958     -0.000871     -0.266599
O     17.39634     10.43466     12.47271         0.042963     -0.013941     -0.211478
O     10.43466      8.50569      3.58206        -0.098054      0.570369     -0.131193
O     10.54374      8.50569     17.39634         0.066140      0.503858     -0.096797
O     10.54374     12.47271      3.58206         0.106173     -0.621885      0.132906
O     10.43466     12.47271     17.39634        -0.059866     -0.635310     -0.244976
O      8.50569      3.58206     10.43466         0.400063      0.028523     -0.032071
O      8.50569     17.39634     10.54374         0.626486     -0.153485      0.050122
O     12.47271      3.58206     10.54374        -0.505716      0.126718      0.037643
O     12.47271     17.39634     10.43466        -0.622623     -0.136632      0.038523
O     11.90042     11.90042     19.56718        -0.273314     -0.308210      0.236277
O     19.56718     19.56718     19.56718         0.301684      0.318464      0.300042
O     19.56718     11.90042     11.90042         0.284871     -0.325252     -0.230322
O     11.90042     19.56718     11.90042        -0.317102      0.229427     -0.201110
O      9.45224      1.03696      9.45224        -0.085507      0.083425     -0.066113
O      1.03696      9.45224      9.45224         0.101514     -0.117197     -0.044310
O      1.03696      1.03696      1.03696         0.086596      0.058367      0.096764
O      9.45224      9.45224      1.03696        -0.063490     -0.134366      0.129319
Zr     10.48920      2.52580     10.48920         0.029493     -0.089198      0.066889
Zr     10.48920     18.45260     10.48920        -0.168806      0.262815     -0.347544
Zr     10.48920     10.48920      2.52580         0.123645      0.361381     -0.355697
Zr     10.48920     10.48920     18.45260        -0.082302     -0.195941      0.170896
Zr      2.52580     10.48920     10.48920        -0.257736      0.123897      0.222092
Zr     18.45260     10.48920     10.48920         0.232422     -0.108698      0.003101
Pd      9.39465     14.23053      9.37529         0.000444      0.036265     -0.029353
Pd      8.62891     13.72907     12.95758        -0.007664     -0.015742      0.011712
Pd     12.02827     14.41181      8.74359         0.011188      0.001442     -0.004397
Pd     12.77885     12.79984     10.60963        -0.014416      0.051968      0.049700
Pd     12.14805      7.09774     12.58855        -0.012674      0.024576      0.046658
Pd     11.22984     14.81204     11.51624        -0.032517      0.028237     -0.027101
Pd     10.11022     12.46584     11.13802        -0.060931      0.062867     -0.093506
Pd     13.48364     12.13511      7.97375         0.006309     -0.009337      0.008933
Pd     11.48774     11.55687      6.10993         0.000926      0.003221     -0.004544
Pd      7.84897      8.59772      7.53774         0.016580     -0.045050     -0.003003
Pd      8.74646     11.72038      6.88843        -0.015753      0.020277     -0.006225
Pd     10.32327      9.45618      8.11756        -0.008422      0.015193      0.037668
Pd      8.51347     14.42177      6.85790        -0.006815      0.016370     -0.024403
Pd     12.39383      9.02741      6.56639        -0.025249      0.005156      0.014141
Pd      9.75558      9.61543      5.53511        -0.008830     -0.007401      0.015048
Pd      6.89461      9.45554     12.20054        -0.024019      0.017321     -0.003584
Pd     12.20286      6.67992      7.85036         0.004246      0.017908      0.029933
Pd      5.96339     10.47575      9.74377        -0.022916     -0.026337     -0.015570
Pd      7.58657      7.10291     13.25053        -0.003660      0.046719      0.016410
Ir     11.82497      9.69136     13.05811        -0.025160      0.013344      0.006724
Ir     13.58299      8.98452     11.43040        -0.010534      0.015885      0.003892
Ir      9.42669      8.83093     13.82184         0.002266      0.002648      0.070875
Ir     10.57637     10.91250     14.86098        -0.009357     -0.001592      0.055609
Ir      7.30769     12.04293     11.36765        -0.010149     -0.021146     -0.015177
Ir     14.69921     10.82081     10.06792        -0.031895      0.002260      0.047312
Ir     12.19888     10.46388      9.64862         0.017013     -0.003651      0.024284
Ir      8.78100     11.06681     13.03762         0.026278      0.003622     -0.025828
Ir     10.14878      9.83647     11.24502        -0.015942      0.015719     -0.061487
Ir     13.79477     11.35707     12.38888        -0.046156     -0.004330      0.031219
Ir     11.69317     12.28830     13.11545        -0.059736      0.011234      0.012246
Ir      8.54869     11.06383      9.39318        -0.049417      0.027471     -0.022421
Ir     11.58425      7.96658     10.05171         0.026965      0.019035      0.015512
Ir      7.23440     12.97876      8.68806         0.043370     -0.005269      0.020892
Ir      9.50198      7.01016      9.06981         0.008318     -0.014531      0.014690
Ir      8.07270      8.74252     10.10149        -0.019998      0.016477      0.011394
Ir     10.76830     12.08257      8.53878        -0.022949      0.028151     -0.013128
Ir      9.56619      7.40009     11.62902         0.011346      0.031997      0.047138
Ir     13.69583      8.67023      8.79668        -0.019319      0.050997      0.014136
