152
# total energy = -1060.05271542 eVH     10.35389      5.87395      7.64558        -0.276664      0.028078      1.133995
H     10.62451     15.10445      7.64558         0.057298     -0.086819      0.938269
H     10.62451      5.87395     13.33282        -0.254323      0.076213     -0.790145
H     10.35389     15.10445     13.33282         0.093643     -0.302041     -0.881281
H      7.64558     10.35389      5.87395         0.934480     -0.127349      0.183565
H      7.64558     10.62451     15.10445         0.335464     -0.042115     -0.073322
H     13.33282     10.62451      5.87395        -0.861891      0.195803      0.205725
H     13.33282     10.35389     15.10445        -0.277304     -0.012778     -0.069622
H      5.87395      7.64558     10.35389         0.087762      0.416736     -0.012290
H     15.10445      7.64558     10.62451         0.006503      0.495520     -0.039968
H      5.87395     13.33282     10.62451        -0.019262     -0.963300      0.078982
H     15.10445     13.33282     10.35389        -0.075334     -0.319789      0.002447
H      5.87395     10.35389      7.64558         0.279844      0.115854      0.409176
H     15.10445     10.62451      7.64558        -0.124408     -0.174601      0.661752
H      5.87395     10.62451     13.33282        -0.085799      0.463183     -0.613418
H     15.10445     10.35389     13.33282         0.244430     -0.628743     -0.819741
H     10.35389      7.64558      5.87395        -0.043436      0.485175      0.335284
H     10.62451      7.64558     15.10445         0.251482      0.782072     -0.029744
H     10.62451     13.33282      5.87395         0.129502     -0.573337      0.206714
H     10.35389     13.33282     15.10445         0.036278     -0.284952     -0.143175
H      7.64558      5.87395     10.35389         0.341492      0.097212      0.026567
H      7.64558     15.10445     10.62451         0.376592     -0.117186      0.163792
H     13.33282      5.87395     10.62451        -0.314462      0.129730     -0.030069
H     13.33282     15.10445     10.35389        -0.656607     -0.122315      0.144656
H     12.45634     12.45634     19.01126         0.255168      0.271082     -0.229215
H     19.01126     19.01126     19.01126        -0.245608     -0.268544     -0.246048
H     19.01126     12.45634     12.45634        -0.251387      0.269712      0.235362
H     12.45634     19.01126     12.45634         0.290333     -0.235951      0.234337
C     10.35284      5.61067      6.59456         0.398062     -0.419166     -1.434641
C     10.62556     15.36773      6.59456        -0.147416      0.587182     -0.641610
C     10.62556      5.61067     14.38384         0.385490     -0.345704      0.833459
C     10.35284     15.36773     14.38384        -0.229513      0.217425      1.095680
C      6.59456     10.35284      5.61067        -1.382004      0.022692     -0.236778
C      6.59456     10.62556     15.36773        -0.655966      0.062108      0.375172
C     14.38384     10.62556      5.61067         1.300361     -0.166311     -0.628463
C     14.38384     10.35284     15.36773         0.363318     -0.121139      0.352870
C      5.61067      6.59456     10.35284        -0.290513     -0.650759     -0.019627
C     15.36773      6.59456     10.62556         0.419030     -0.977002      0.039168
C      5.61067     14.38384     10.62556        -0.132428      1.168081     -0.185900
C     15.36773     14.38384     10.35284         0.472031      0.651656     -0.025752
C      5.61067     10.35284      6.59456        -0.375090     -0.099452     -0.735487
C     15.36773     10.62556      6.59456         0.413511      0.118433     -0.750262
C      5.61067     10.62556     14.38384        -0.393472     -0.175117      1.231588
C     15.36773     10.35284     14.38384         0.279444      0.189773      1.479593
C     10.35284      6.59456      5.61067        -0.052292     -0.727183     -0.609196
C     10.62556      6.59456     15.36773        -0.108925     -0.877895      0.350782
C     10.62556     14.38384      5.61067        -0.469104      0.402724     -0.711528
C     10.35284     14.38384     15.36773        -0.156577      0.620050      0.421840
C      6.59456      5.61067     10.35284        -0.513307     -0.337190      0.026996
C      6.59456     15.36773     10.62556        -0.383153      0.456976      0.055478
C     14.38384      5.61067     10.62556         0.445439     -0.372579      0.001637
C     14.38384     15.36773     10.35284         1.123859      0.506701     -0.068777
C     10.40319      3.19606      7.29314        -0.000668      0.657997     -0.332212
C     10.35913      4.25547      6.23373         0.008849     -0.430422      0.286700
C      0.08601      7.29314      7.29314        -0.014218     -0.357576     -0.506291
C      0.13007      6.23373      6.23373        -0.071203      0.860033      0.064357
C      0.08601      3.19606      3.19606        -0.002963      0.681723      0.268892
C      0.13007      4.25547      4.25547         0.028607     -0.268329     -0.542864
C     10.40319      7.29314      3.19606        -0.067992     -1.157346      0.568067
C     10.35913      6.23373      4.25547        -0.037330      0.365712     -0.198206
C      7.29314     10.40319      3.19606        -1.082871     -0.057329      0.187599
C      6.23373     10.35913      4.25547         0.363741      0.084014     -0.535623
C      7.29314      0.08601      7.29314        -0.414618      0.034899     -0.545711
C      6.23373      0.13007      6.23373         0.182136      0.131400      0.130877
C      3.19606      0.08601      3.19606         0.694414      0.025634      0.165999
C      4.25547      0.13007      4.25547        -0.170704     -0.049290     -0.357756
C      3.19606     10.40319      7.29314         0.374204     -0.024914     -0.886500
C      4.25547     10.35913      6.23373        -0.156491     -0.081084      0.098061
C      3.19606      7.29314     10.40319         0.600375     -0.395394      0.002407
C      4.25547      6.23373     10.35913        -0.114228      0.184276      0.001167
C      7.29314      7.29314      0.08601        -0.409510     -0.321190     -0.015531
C      6.23373      6.23373      0.13007         0.185916      0.192324     -0.059251
C      3.19606      3.19606      0.08601         0.288692      0.477931     -0.024475
C      4.25547      4.25547      0.13007        -0.402247     -0.228474     -0.035279
C      7.29314      3.19606     10.40319        -0.277600      0.589411     -0.011799
C      6.23373      4.25547     10.35913         0.005471     -0.112234      0.020821
O     10.43466      3.58206      8.50569        -0.027708      0.098794      0.324956
O     10.54374     17.39634      8.50569         0.063885     -0.132663      0.599636
O     10.54374      3.58206     12.47271         0.027297      0.106398     -0.392634
O     10.43466     17.39634     12.47271         0.089363     -0.044622     -0.377029
O      8.50569     10.43466      3.58206         0.711570     -0.062127      0.013806
O      8.50569     10.54374     17.39634         0.459139      0.056609     -0.073554
O     12.47271     10.54374      3.58206        -0.649497      0.113944      0.204287
O     12.47271     10.43466     17.39634        -0.279401     -0.003758      0.019109
O      3.58206      8.50569     10.43466         0.042128      0.461433     -0.066819
O     17.39634      8.50569     10.54374        -0.059226      0.455914      0.055820
O      3.58206     12.47271     10.54374         0.113754     -0.583051      0.002278
O     17.39634     12.47271     10.43466        -0.168965     -0.736826     -0.058789
O      3.58206     10.43466      8.50569         0.215524     -0.062460      0.787102
O     17.39634     10.54374      8.50569        -0.112804      0.076819      0.583196
O      3.58206     10.54374     12.47271        -0.000140     -0.002942     -0.267994
O     17.39634     10.43466     12.47271         0.041134     -0.013062     -0.217757
O     10.43466      8.50569      3.58206        -0.103765      0.573306     -0.114149
O     10.54374      8.50569     17.39634         0.066457      0.501272     -0.091763
O     10.54374     12.47271      3.58206         0.105450     -0.627990      0.134812
O     10.43466     12.47271     17.39634        -0.061904     -0.637569     -0.245382
O      8.50569      3.58206     10.43466         0.396626      0.027993     -0.034192
O      8.50569     17.39634     10.54374         0.630328     -0.154396      0.048929
O     12.47271      3.58206     10.54374        -0.508680      0.127029      0.035919
O     12.47271     17.39634     10.43466        -0.619947     -0.134252      0.038346
O     11.90042     11.90042     19.56718        -0.274155     -0.308889      0.234967
O     19.56718     19.56718     19.56718         0.302499      0.319510      0.300216
O     19.56718     11.90042     11.90042         0.285429     -0.325512     -0.231617
O     11.90042     19.56718     11.90042        -0.316522      0.229680     -0.202135
O      9.45224      1.03696      9.45224        -0.082492      0.081801     -0.069947
O      1.03696      9.45224      9.45224         0.100043     -0.114396     -0.047281
O      1.03696      1.03696      1.03696         0.083639      0.054120      0.098638
O      9.45224      9.45224      1.03696        -0.059925     -0.131757      0.131465
Zr     10.48920      2.52580     10.48920         0.032119     -0.085177      0.074110
Zr     10.48920     18.45260     10.48920        -0.171271      0.260268     -0.348124
Zr     10.48920     10.48920      2.52580         0.119050      0.357370     -0.351600
Zr     10.48920     10.48920     18.45260        -0.081456     -0.204061      0.181625
Zr      2.52580     10.48920     10.48920        -0.253912      0.130508      0.226368
Zr     18.45260     10.48920     10.48920         0.226658     -0.112171      0.005831
Pd      9.39696     14.24686      9.37686        -0.004028      0.027001     -0.041134
Pd      8.61977     13.70216     12.97270        -0.016278     -0.023976      0.021729
Pd     12.03199     14.42140      8.73642         0.008946     -0.017240     -0.000237
Pd     12.78590     12.82178     10.61171        -0.032393      0.002553      0.050794
Pd     12.14582      7.11694     12.61788        -0.008011      0.000792      0.007982
Pd     11.22082     14.82125     11.51276        -0.017121      0.018043     -0.020950
Pd     10.10180     12.47327     11.13587        -0.051642      0.077212     -0.032427
Pd     13.47754     12.12888      7.97700         0.008631      0.002335      0.007290
Pd     11.47696     11.55609      6.11389         0.000757     -0.001017      0.009598
Pd      7.85587      8.57357      7.54889         0.007586     -0.044094     -0.031204
Pd      8.73892     11.72615      6.89232         0.002565      0.015435      0.000552
Pd     10.31463      9.46857      8.14363         0.006581      0.009204     -0.004472
Pd      8.51572     14.42959      6.85508        -0.011972      0.011116     -0.014068
Pd     12.36527      9.02874      6.57733         0.001844      0.009722      0.007198
Pd      9.74335      9.60637      5.55278         0.001520      0.010138      0.007469
Pd      6.86254      9.45488     12.18432        -0.024907     -0.000034      0.017311
Pd     12.20887      6.68690      7.87012        -0.001253     -0.000272      0.009561
Pd      5.95586     10.46380      9.72540        -0.024691     -0.002737     -0.008971
Pd      7.57745      7.13300     13.25335        -0.020964      0.011392      0.064809
Ir     11.81465      9.70529     13.05714        -0.052172      0.024580      0.010010
Ir     13.58483      8.98536     11.44103        -0.002622      0.029009     -0.000503
Ir      9.43249      8.82157     13.87001        -0.002543      0.023180      0.043922
Ir     10.56598     10.93494     14.85025        -0.016015      0.009344      0.053783
Ir      7.29061     12.03140     11.36905        -0.004903     -0.007155     -0.004348
Ir     14.70191     10.82410     10.07920        -0.032855      0.028083      0.042953
Ir     12.19695     10.48167      9.66935         0.004695      0.027756     -0.016946
Ir      8.76603     11.03445     13.02502         0.057436     -0.023352     -0.011363
Ir     10.14446      9.84755     11.23461         0.008853      0.037672     -0.033292
Ir     13.78625     11.36298     12.39270        -0.051880     -0.008042      0.029250
Ir     11.68701     12.30767     13.11080        -0.056349     -0.007815     -0.028116
Ir      8.53644     11.07269      9.39330        -0.020715      0.033351     -0.035800
Ir     11.59540      7.97386     10.06626         0.011397      0.025756      0.040291
Ir      7.23689     12.99393      8.69925         0.023561      0.024621     -0.011577
Ir      9.51465      7.00960      9.09895        -0.003689     -0.058712      0.001186
Ir      8.07086      8.74662     10.10570        -0.015806     -0.017317     -0.011106
Ir     10.76212     12.09462      8.54582        -0.005756      0.010645     -0.045049
Ir      9.56815      7.42811     11.65223        -0.002722      0.054306      0.056239
Ir     13.69190      8.70110      8.79705         0.002259      0.030797      0.016714
