152
# total energy = -1022.85236058 eVH     10.35389      5.87395      7.64558         0.473871      0.025512      0.891087
H     10.62451     15.10445      7.64558        -0.042751      0.047319      0.767547
H     10.62451      5.87395     13.33282         0.144574      0.115563     -0.607383
H     10.35389     15.10445     13.33282        -0.248089     -0.082040     -0.554683
H      7.64558     10.35389      5.87395         0.331035     -0.035695      0.189727
H      7.64558     10.62451     15.10445         0.617492     -0.191769     -0.143514
H     13.33282     10.62451      5.87395        -0.847750     -0.323242      0.169309
H     13.33282     10.35389     15.10445        -0.446005     -0.077937     -0.069814
H      5.87395      7.64558     10.35389         0.130645      1.111092     -0.166516
H     15.10445      7.64558     10.62451        -0.170641      0.402923     -0.086194
H      5.87395     13.33282     10.62451         0.143237     -0.407410     -0.072734
H     15.10445     13.33282     10.35389        -0.077329     -0.969301     -0.191948
H      5.87395     10.35389      7.64558         0.128174      0.039018      0.482413
H     15.10445     10.62451      7.64558         0.113066     -0.204885      0.818318
H      5.87395     10.62451     13.33282         0.268360     -0.029082     -0.393130
H     15.10445     10.35389     13.33282        -0.156958      0.017175     -0.616684
H     10.35389      7.64558      5.87395         0.065250      0.874736      0.110029
H     10.62451      7.64558     15.10445         0.025323      0.556623     -0.143424
H     10.62451     13.33282      5.87395         0.059161     -0.597063      0.179067
H     10.35389     13.33282     15.10445        -0.251225     -0.896906     -0.112838
H      7.64558      5.87395     10.35389         0.526848      0.044012     -0.135186
H      7.64558     15.10445     10.62451         0.925045     -0.204233      0.294942
H     13.33282      5.87395     10.62451        -0.437668      0.186361     -0.059603
H     13.33282     15.10445     10.35389        -1.020410     -0.100422      0.268234
H     12.45634     12.45634     19.01126         0.266606      0.257272     -0.225145
H     19.01126     19.01126     19.01126        -0.247148     -0.235337     -0.262288
H     19.01126     12.45634     12.45634        -0.240228      0.270865      0.239279
H     12.45634     19.01126     12.45634         0.210927     -0.282877      0.252953
C     10.35284      5.61067      6.59456        -0.112893     -0.444763     -0.390789
C     10.62556     15.36773      6.59456         0.019569      0.353383     -1.150300
C     10.62556      5.61067     14.38384        -0.029735     -0.220841      0.727823
C     10.35284     15.36773     14.38384         0.174616      0.772237      0.154152
C      6.59456     10.35284      5.61067        -0.410970     -0.040971     -0.179682
C      6.59456     10.62556     15.36773        -0.783097      0.152133      0.348298
C     14.38384     10.62556      5.61067         0.605954      0.290236     -0.366297
C     14.38384     10.35284     15.36773         0.717549     -0.119044      0.425302
C      5.61067      6.59456     10.35284        -0.425123     -0.739875      0.280758
C     15.36773      6.59456     10.62556         0.199035     -0.462747      0.047378
C      5.61067     14.38384     10.62556        -0.258199      0.379421     -0.024937
C     15.36773     14.38384     10.35284         0.402708      0.159172      0.196872
C      5.61067     10.35284      6.59456        -0.310213     -0.016099     -0.892872
C     15.36773     10.62556      6.59456         0.577763     -0.162258     -1.233310
C      5.61067     10.62556     14.38384        -0.457664      0.007573      0.896128
C     15.36773     10.35284     14.38384         0.519020     -0.181133      1.252387
C     10.35284      6.59456      5.61067        -0.035149     -0.940771     -0.667014
C     10.62556      6.59456     15.36773         0.044944     -0.663276      0.293627
C     10.62556     14.38384      5.61067         0.046095      1.240152     -0.696592
C     10.35284     14.38384     15.36773         0.108769      0.615342      0.643264
C      6.59456      5.61067     10.35284        -0.214965     -0.889320      0.130899
C      6.59456     15.36773     10.62556        -1.726555      0.492235      0.039768
C     14.38384      5.61067     10.62556         0.585571     -0.228801     -0.008214
C     14.38384     15.36773     10.35284         0.184697      0.552008     -0.241866
C     10.40319      3.19606      7.29314         0.014995      0.896093     -0.252411
C     10.35913      4.25547      6.23373        -0.055267     -0.366990      0.606680
C      0.08601      7.29314      7.29314        -0.008650     -0.239023     -0.467553
C      0.13007      6.23373      6.23373         0.001380      0.119946      0.207044
C      0.08601      3.19606      3.19606        -0.016692      0.646060      0.184525
C      0.13007      4.25547      4.25547        -0.089360     -0.199335     -0.168086
C     10.40319      7.29314      3.19606        -0.002612     -0.688697      0.524931
C     10.35913      6.23373      4.25547        -0.012216      0.500341     -0.412925
C      7.29314     10.40319      3.19606        -0.340326      0.022994      0.874730
C      6.23373     10.35913      4.25547         0.212039      0.011438     -0.145446
C      7.29314      0.08601      7.29314        -0.307648     -0.046132     -0.276968
C      6.23373      0.13007      6.23373         0.269076     -0.057993      0.294024
C      3.19606      0.08601      3.19606         0.436285     -0.051748      1.304101
C      4.25547      0.13007      4.25547        -0.117033     -0.026415     -0.462261
C      3.19606     10.40319      7.29314         0.698212      0.014296     -0.265917
C      4.25547     10.35913      6.23373        -0.133273      0.029164      0.102332
C      3.19606      7.29314     10.40319         0.605626     -1.268910      0.024831
C      4.25547      6.23373     10.35913        -0.720995      0.835797      0.048510
C      7.29314      7.29314      0.08601        -0.648071     -0.172522     -0.022314
C      6.23373      6.23373      0.13007         0.170866      0.272040     -0.008725
C      3.19606      3.19606      0.08601         0.241298      0.251632     -0.019747
C      4.25547      4.25547      0.13007        -0.055504     -0.037497      0.012641
C      7.29314      3.19606     10.40319        -0.371257      0.801725      0.015802
C      6.23373      4.25547     10.35913         0.874426     -0.165836      0.010625
O     10.43466      3.58206      8.50569        -0.049484      0.036095      0.323561
O     10.54374     17.39634      8.50569        -0.023101     -0.181084      0.600772
O     10.54374      3.58206     12.47271         0.055029      0.061349     -0.324967
O     10.43466     17.39634     12.47271        -0.023022     -0.126459     -0.583395
O      8.50569     10.43466      3.58206         0.376964     -0.025071     -0.017159
O      8.50569     10.54374     17.39634         0.470217      0.053002     -0.142608
O     12.47271     10.54374      3.58206        -0.283966      0.049433     -0.077367
O     12.47271     10.43466     17.39634        -0.849692      0.019781     -0.225265
O      3.58206      8.50569     10.43466         0.042146      0.920568      0.039786
O     17.39634      8.50569     10.54374        -0.041273      0.341248      0.077922
O      3.58206     12.47271     10.54374         0.064331     -0.420710      0.063968
O     17.39634     12.47271     10.43466        -0.169761     -0.781111      0.019902
O      3.58206     10.43466      8.50569        -0.054128     -0.065650      0.228182
O     17.39634     10.54374      8.50569        -0.136609      0.043566      0.462328
O      3.58206     10.54374     12.47271        -0.021927     -0.050969     -0.892719
O     17.39634     10.43466     12.47271        -0.197662      0.045611     -0.771988
O     10.43466      8.50569      3.58206         0.044374      0.677124      0.189830
O     10.54374      8.50569     17.39634         0.053409      0.436796     -0.080858
O     10.54374     12.47271      3.58206        -0.007874     -0.732236      0.226156
O     10.43466     12.47271     17.39634         0.047329     -0.844718     -0.272596
O      8.50569      3.58206     10.43466         0.489745      0.074141     -0.038516
O      8.50569     17.39634     10.54374         0.648459     -0.249841     -0.059590
O     12.47271      3.58206     10.54374        -0.484447      0.163642      0.039618
O     12.47271     17.39634     10.43466        -0.527791     -0.036790     -0.029806
O     11.90042     11.90042     19.56718        -0.304145     -0.312228      0.265028
O     19.56718     19.56718     19.56718         0.286714      0.272755      0.321119
O     19.56718     11.90042     11.90042         0.278190     -0.330737     -0.244351
O     11.90042     19.56718     11.90042        -0.228342      0.290696     -0.241075
O      9.45224      1.03696      9.45224        -0.074731      0.048043     -0.066638
O      1.03696      9.45224      9.45224         0.055166     -0.144127     -0.057757
O      1.03696      1.03696      1.03696         0.043103      0.033364      0.187393
O      9.45224      9.45224      1.03696        -0.041111     -0.091146      0.123172
Zr     10.48920      2.52580     10.48920        -0.005939     -0.074058     -0.024638
Zr     10.48920     18.45260     10.48920         0.056005      0.302929     -0.074580
Zr     10.48920     10.48920      2.52580        -0.097718      0.012790     -0.371821
Zr     10.48920     10.48920     18.45260        -0.132583     -0.153351      0.326175
Zr      2.52580     10.48920     10.48920        -0.352966      0.316732     -0.466528
Zr     18.45260     10.48920     10.48920         0.246740      0.033179     -0.269459
Pd      9.03917     10.25637     13.32696        -0.009017     -0.009891      0.002033
Pd     10.57819      9.72349     10.97255         0.005863     -0.006617     -0.023524
Pd     13.76922      8.53558     12.69422         0.000604     -0.000585     -0.010502
Pd     11.00323     11.07372     15.01141        -0.004648     -0.013159     -0.003196
Pd     12.85401     11.17174     13.00148         0.016514      0.002699      0.012973
Pd     14.99352     10.93409     11.34725         0.008080      0.018020     -0.012588
Pd      6.65231      7.43611     12.34251        -0.007068      0.021101      0.002414
Pd      9.23138      7.26247     10.11823         0.008313      0.013477     -0.030961
Pd      9.26719      7.60387     12.79377         0.003589     -0.009595     -0.019450
Pd     11.70178      7.28791     11.46835         0.000492      0.002125     -0.017765
Pd     11.41079      7.99297      8.86651         0.026049      0.000987     -0.014524
Pd      7.25926     11.83444     11.95600         0.006425     -0.000919     -0.011476
Pd      8.89148     14.66983      9.32524         0.033274      0.006548      0.017315
Pd      8.41804     12.65214     14.32127        -0.003602     -0.006037      0.000714
Pd     13.51077     14.09745      8.56804         0.074296      0.021592     -0.037580
Pd     10.97257     13.32979      8.50969         0.062499      0.029161      0.029625
Pd     14.10159     11.52916      8.93412        -0.000917      0.019373     -0.011821
Pd      8.61824     14.10628     12.10154         0.007772     -0.006402      0.001909
Pd     12.24345     13.71427     14.02902        -0.006425      0.000398      0.002644
Pd     11.14749     14.43536     11.13845         0.029530     -0.011226      0.043919
Pd     14.05359     13.54847     12.17042        -0.010173      0.018680     -0.002890
Pd     12.30436     12.15537     10.66531         0.007813     -0.021338      0.003830
Pd     12.67835     12.33734      6.71787         0.021432      0.034934     -0.017033
Pd     13.67598      8.93971      7.93909         0.032734      0.002310     -0.001572
Pd      6.86889      8.46752      8.84839         0.007403      0.007113     -0.007304
Pd      5.52526      9.93780     11.26283         0.003666      0.020806     -0.042411
Pd      9.15699      9.75437      8.31988         0.024516     -0.021229     -0.011975
Pd      8.82920      7.25766      7.45338        -0.021982     -0.015915     -0.025096
Pd      9.52045     12.08296     10.41990         0.014133      0.004231     -0.008488
Pd     11.55220     10.70736      8.56450         0.017210      0.007998     -0.026052
Pd     11.25429      9.22426      6.44454         0.036931     -0.019052     -0.013063
Pd      9.91657     11.54307      6.37769         0.036155     -0.022925     -0.005887
Ir     11.35084      9.10422     13.35297        -0.000494      0.006806     -0.023633
Ir     13.07625      9.49016     10.40541         0.010440      0.007194     -0.009103
Ir     10.53030     12.35683     12.70315        -0.000433     -0.016301      0.016321
Ir      7.14118     10.98401      9.50599         0.054665      0.015453     -0.026526
Ir      8.40651     12.45189      8.17348         0.047892      0.007313      0.006792
Ir      8.06292      9.29519     11.11408         0.006384      0.005628     -0.002336
