26
# total energy = -169.64811774 eVH      0.37364      6.90788      7.50000        -0.003804      0.003064     -0.000000
H      2.82292      2.06012      7.50000         0.010035      0.014841     -0.000000
H      6.19819      6.72052      7.50000        -0.014696     -0.019320     -0.000000
H      8.94034     -1.55303      7.50000         0.003804     -0.003064     -0.000000
H      6.49107      3.29473      7.50000        -0.010035     -0.014841     -0.000000
H      3.11579     -1.36567      7.50000         0.014696      0.019320     -0.000000
C      8.50670      4.15905      7.50000         0.049884     -0.057086      0.000000
C      1.45162     -0.08465      7.50000         0.037155     -0.021070      0.000000
C      8.71037     -3.71490      7.50000        -0.027519      0.030120     -0.000000
C      0.80728      1.19580      7.50000        -0.049884      0.057086      0.000000
C      7.86236      5.43950      7.50000        -0.037155      0.021070     -0.000000
C      0.60362      9.06975      7.50000         0.027519     -0.030120      0.000000
C      8.20758     -2.36367      7.50000        -0.033949     -0.005714      0.000000
C      7.54814      2.98335      7.50000         0.006550      0.004152      0.000000
C      2.85576     -0.31416      7.50000         0.010990     -0.011441     -0.000000
C      1.10640      7.71852      7.50000         0.033949      0.005714     -0.000000
C      1.76585      2.37150      7.50000        -0.006550     -0.004152      0.000000
C      6.45823      5.66901      7.50000        -0.010990      0.011441     -0.000000
O      6.96127     -2.07812      7.50000         0.010070      0.042614      0.000000
O      7.81010      1.78071      7.50000         0.008643      0.003980      0.000000
O      3.86949      0.51487      7.50000         0.014365      0.012862     -0.000000
O      2.35271      7.43297      7.50000        -0.010070     -0.042614     -0.000000
O      1.50389      3.57414      7.50000        -0.008643     -0.003980      0.000000
O      5.44449      4.83998      7.50000        -0.014365     -0.012862     -0.000000
Au      5.61864     -0.56394      7.50000         0.034589      0.023430     -0.000000
Au      3.69534      5.91879      7.50000        -0.034589     -0.023430      0.000000
