35
# total energy = -301.58188619 eVC      6.68700     10.29542      7.65563         0.007687      0.024305     -0.003860
C      8.07433      9.94534      7.58125        -0.007847      0.000855     -0.000248
C      9.41802      5.71128      7.64973        -0.027139     -0.006016     -0.005407
C      1.46302      5.34646      7.67291         0.009312      0.009306      0.006989
C      4.19488      0.76195      7.63717         0.004226     -0.004036     -0.003935
C      2.80713      1.11155      7.56701         0.014069      0.000573     -0.005573
C      0.70509      4.16516      7.64830        -0.036719     -0.028058     -0.001456
C      1.08919      2.78679      7.57361         0.035763      0.008495      0.001802
C      5.35762      1.54939      7.64442        -0.006514      0.017977     -0.005195
C      5.52407      9.50852      7.67727         0.024326     -0.002480      0.006749
C     10.17661      6.89247      7.64451         0.020840      0.024069     -0.004293
C      9.79312      8.27113      7.57551        -0.022268     -0.000973     -0.004105
C      0.77642      6.57574      7.64974         0.021422      0.023541     -0.000652
C      1.26340      7.92218      7.57888        -0.027587      0.023335      0.000399
C     10.10468      4.48218      7.64282        -0.003070     -0.038250     -0.003045
C      9.61898      3.13558      7.56518         0.032698     -0.016452     -0.004768
C      4.27889     10.16461      7.65487        -0.057787     -0.019132     -0.002709
C      2.94459      9.64469      7.58111        -0.023593      0.030364      0.001530
C      6.60356      0.89341      7.63730         0.025190      0.001796     -0.003042
C      7.93758      1.41253      7.56131         0.023226     -0.046976     -0.002504
N      8.80861      0.32145      7.47459        -0.016678      0.047842      0.007738
N      0.15255      8.76666      7.48585         0.034572     -0.029847      0.009861
N      8.54277      8.70717      7.60134        -0.015083     -0.040646      0.008719
N      2.33973      2.34995      7.59461         0.001915      0.044228      0.008518
N      2.07306     10.73453      7.48856         0.020954     -0.043752      0.009069
N     10.73115      2.29192      7.48050        -0.041415      0.015578      0.006345
N      2.57653      8.32228      7.59786        -0.002551      0.003053      0.013490
N      8.30605      2.73461      7.57507         0.002755      0.006502      0.008191
O      5.32712      2.87834      7.61030         0.016564      0.009885     -0.014379
O      5.55516      8.17959      7.68951        -0.019637     -0.021939      0.016733
O      8.08854      5.70916      7.61391         0.006739     -0.010601     -0.014784
O      2.79227      5.34800      7.68891         0.024294      0.024634      0.013722
Zr      6.54016      4.45790      7.56025        -0.030963      0.011374     -0.025547
Zr      4.34242      6.59948      7.70552         0.015289     -0.024438      0.016990
Zr      0.02685     10.81034      6.85720        -0.002993      0.005882     -0.031342
