152
# total energy = -1110.39300367 eVH     10.35389      5.87395      7.64558        -0.385442     -0.130364      1.144882
H     10.62451     15.10445      7.64558         0.328409      0.078244      0.920517
H     10.62451      5.87395     13.33282        -0.318003     -0.671215     -1.336935
H     10.35389     15.10445     13.33282        -0.587801      0.425038     -0.332319
H      7.64558     10.35389      5.87395         0.560534     -0.523760     -0.101923
H      7.64558     10.62451     15.10445         0.383767     -0.232945      0.042686
H     13.33282     10.62451      5.87395        -0.580018      0.648154     -0.047735
H     13.33282     10.35389     15.10445        -0.526100      0.387803      0.154615
H      5.87395      7.64558     10.35389         0.149193      0.554499      0.028271
H     15.10445      7.64558     10.62451         0.428843      1.020347      0.283855
H      5.87395     13.33282     10.62451        -0.220538     -0.501971      0.361965
H     15.10445     13.33282     10.35389         0.028427     -0.299945     -0.381320
H      5.87395     10.35389      7.64558        -0.102971     -0.411891      1.488605
H     15.10445     10.62451      7.64558         0.220493      0.513118      1.326585
H      5.87395     10.62451     13.33282        -0.213678     -0.367316     -1.200513
H     15.10445     10.35389     13.33282         0.615193      1.006184     -1.536078
H     10.35389      7.64558      5.87395        -0.584280      0.529051     -0.173421
H     10.62451      7.64558     15.10445        -0.133999      0.451326      0.157748
H     10.62451     13.33282      5.87395         0.869785     -1.330949     -0.313079
H     10.35389     13.33282     15.10445         0.226328     -0.562824     -0.104809
H      7.64558      5.87395     10.35389         0.717854      0.164387     -0.171712
H      7.64558     15.10445     10.62451         1.978783      0.751997      0.219997
H     13.33282      5.87395     10.62451        -2.655126     -0.903724     -0.514076
H     13.33282     15.10445     10.35389        -0.878247     -0.055542     -0.254206
H     12.45634     12.45634     19.01126         0.271939      0.257898     -0.227393
H     19.01126     19.01126     19.01126        -0.266803     -0.254671     -0.238744
H     19.01126     12.45634     12.45634        -0.284075      0.281718      0.184921
H     12.45634     19.01126     12.45634         0.256511     -0.250694      0.235745
C     10.35284      5.61067      6.59456         0.075990     -0.485307     -1.204535
C     10.62556     15.36773      6.59456         0.192757      0.755885     -0.815193
C     10.62556      5.61067     14.38384         0.180544     -0.297627      1.781760
C     10.35284     15.36773     14.38384         0.086419      0.385349      1.792437
C      6.59456     10.35284      5.61067        -1.139644     -0.110322     -0.894934
C      6.59456     10.62556     15.36773        -0.699181     -0.094722      0.792486
C     14.38384     10.62556      5.61067         0.840475     -0.111876     -0.992336
C     14.38384     10.35284     15.36773         1.181100      0.168732      1.101286
C      5.61067      6.59456     10.35284        -0.668522     -0.898158     -0.187601
C     15.36773      6.59456     10.62556         2.008598     -0.321452     -0.187180
C      5.61067     14.38384     10.62556        -1.568376     -0.015067     -0.142828
C     15.36773     14.38384     10.35284         0.485625      0.088793      0.001020
C      5.61067     10.35284      6.59456        -0.272363      0.213874     -1.352064
C     15.36773     10.62556      6.59456         0.297835     -0.264819     -0.982096
C      5.61067     10.62556     14.38384        -0.255999      0.444818      1.452632
C     15.36773     10.35284     14.38384         0.003895     -0.490039      1.947292
C     10.35284      6.59456      5.61067        -0.160593     -0.849157     -0.697149
C     10.62556      6.59456     15.36773        -0.118419     -0.714653      1.043032
C     10.62556     14.38384      5.61067        -0.500181      1.988153     -0.753430
C     10.35284     14.38384     15.36773        -0.260503      1.361445      0.500481
C      6.59456      5.61067     10.35284        -0.985332     -0.411462      0.093240
C      6.59456     15.36773     10.62556        -1.257152      0.368939     -0.332831
C     14.38384      5.61067     10.62556         1.270803     -1.302470      0.214714
C     14.38384     15.36773     10.35284         0.456846      0.313163      0.084411
C     10.40319      3.19606      7.29314         0.001120      0.304522     -0.110895
C     10.35913      4.25547      6.23373         0.141809     -0.574886      0.016444
C      0.08601      7.29314      7.29314        -0.053452     -0.279281     -0.420719
C      0.13007      6.23373      6.23373        -0.123736      0.669576      0.018087
C      0.08601      3.19606      3.19606        -0.105821      1.661797      0.165517
C      0.13007      4.25547      4.25547        -0.097015     -0.393126     -1.205413
C     10.40319      7.29314      3.19606         0.015704     -0.450261      0.122652
C     10.35913      6.23373      4.25547         0.263828      0.086060     -0.534191
C      7.29314     10.40319      3.19606        -1.696261      0.010853      0.324910
C      6.23373     10.35913      4.25547         0.670787      0.082134     -0.625028
C      7.29314      0.08601      7.29314        -0.409434     -0.015559     -0.317065
C      6.23373      0.13007      6.23373         0.725634     -0.058447      0.244789
C      3.19606      0.08601      3.19606         0.663059     -0.018750      0.179064
C      4.25547      0.13007      4.25547        -0.355352     -0.085419     -0.570439
C      3.19606     10.40319      7.29314         0.350219      0.023532     -0.319271
C      4.25547     10.35913      6.23373        -0.742605      0.078509      0.362772
C      3.19606      7.29314     10.40319         0.285440     -0.201852     -0.006349
C      4.25547      6.23373     10.35913         0.043603      0.633659      0.091906
C      7.29314      7.29314      0.08601        -0.716030     -0.610179     -0.027534
C      6.23373      6.23373      0.13007         0.902937      1.123252     -0.065745
C      3.19606      3.19606      0.08601         0.823489      0.513772      0.001397
C      4.25547      4.25547      0.13007        -0.324944     -1.767269     -0.129461
C      7.29314      3.19606     10.40319        -0.324871      0.271499     -0.004485
C      6.23373      4.25547     10.35913         0.508980     -0.019752      0.231099
O     10.43466      3.58206      8.50569        -0.048701      0.187034      0.260047
O     10.54374     17.39634      8.50569         0.042201     -0.236893      0.487142
O     10.54374      3.58206     12.47271         0.084023     -0.075382     -0.022495
O     10.43466     17.39634     12.47271        -0.023083     -0.141522     -0.269367
O      8.50569     10.43466      3.58206         0.993026      0.189295      0.376818
O      8.50569     10.54374     17.39634         0.579081      0.084172     -0.229273
O     12.47271     10.54374      3.58206        -0.414304     -0.041292      0.181979
O     12.47271     10.43466     17.39634        -0.506604     -0.067618     -0.193187
O      3.58206      8.50569     10.43466         0.184367      0.423083     -0.028858
O     17.39634      8.50569     10.54374        -0.230464      0.712663      0.046275
O      3.58206     12.47271     10.54374         0.162225     -0.681999      0.026348
O     17.39634     12.47271     10.43466        -0.186669     -0.475045     -0.010323
O      3.58206     10.43466      8.50569         0.231579     -0.061705      0.405981
O     17.39634     10.54374      8.50569        -0.171820      0.037525      0.412980
O      3.58206     10.54374     12.47271         0.147663      0.021807     -0.303193
O     17.39634     10.43466     12.47271         0.081496     -0.051468     -0.070430
O     10.43466      8.50569      3.58206         0.005010      0.273627      0.183326
O     10.54374      8.50569     17.39634         0.069558      0.425777     -0.174116
O     10.54374     12.47271      3.58206        -0.222332     -0.974204      0.329628
O     10.43466     12.47271     17.39634        -0.081992     -0.450610     -0.245191
O      8.50569      3.58206     10.43466         0.489277      0.197360     -0.009957
O      8.50569     17.39634     10.54374         0.664918     -0.203403      0.022307
O     12.47271      3.58206     10.54374        -0.746962      0.280678      0.038344
O     12.47271     17.39634     10.43466        -0.432557     -0.205947     -0.043748
O     11.90042     11.90042     19.56718        -0.347162     -0.307282      0.261141
O     19.56718     19.56718     19.56718         0.324202      0.311520      0.284306
O     19.56718     11.90042     11.90042         0.274587     -0.273628     -0.138166
O     11.90042     19.56718     11.90042        -0.305311      0.283113     -0.233029
O      9.45224      1.03696      9.45224        -0.061347      0.073194     -0.044959
O      1.03696      9.45224      9.45224         0.035774     -0.075826     -0.069904
O      1.03696      1.03696      1.03696         0.063727      0.150080      0.095648
O      9.45224      9.45224      1.03696        -0.143377     -0.098782      0.095864
Zr     10.48920      2.52580     10.48920         0.163829     -0.173346     -0.168429
Zr     10.48920     18.45260     10.48920        -0.101400      0.188013     -0.050974
Zr     10.48920     10.48920      2.52580         0.343366     -0.310012     -0.205325
Zr     10.48920     10.48920     18.45260         0.014623     -0.088196      0.199649
Zr      2.52580     10.48920     10.48920        -0.071876      0.179781     -0.052621
Zr     18.45260     10.48920     10.48920         0.146922     -0.132420     -0.253120
Ir     12.03948     12.48540     10.45313         0.004380     -0.004654      0.005122
Ir     11.22026      7.41352     10.24240         0.017377     -0.002067     -0.020602
Ir      8.85918      7.35016     11.52203         0.002627     -0.013412     -0.015280
Ir      7.46086     11.64717      7.65536        -0.010731     -0.001956      0.001453
Ir     11.59825     12.07200      7.11080        -0.002514     -0.005555     -0.006902
Ir     13.78717      8.99226      7.51941         0.002120     -0.000383     -0.004598
Ir     12.47254     13.95309      8.40465        -0.005916     -0.006448     -0.001855
Ir      9.74070     11.25391      5.53860         0.007796     -0.000861     -0.005149
Ir      9.07443     13.44032      7.07715        -0.003183     -0.002911     -0.002162
Ir      9.26738      9.67294      7.49830        -0.004786      0.008125     -0.013828
Ir     13.28697      7.03483     11.96046        -0.001876     -0.001689      0.002783
Ir     13.64086      7.04176      9.10599         0.008826      0.007962     -0.000830
Ir     11.04652      7.59165     12.79801        -0.001056     -0.008433     -0.014342
Ir     13.59910     11.56529      8.75054        -0.002077     -0.000348     -0.000809
Ir     11.50338      9.62062      6.21669        -0.004813     -0.006851     -0.005468
Ir      7.16360      9.14463      8.91834        -0.004499     -0.006247     -0.011273
Ir     14.06126     11.43962     11.64505        -0.006707      0.004405     -0.004660
Ir     11.66380      9.82560      8.85705        -0.000577     -0.012651     -0.013694
Ir      9.44704      9.49984     10.22276         0.002106     -0.000390     -0.001534
Ir     13.88252      9.41321     10.16423         0.002673     -0.000692     -0.006563
Ir     13.84073      9.16263     12.87750         0.006707     -0.004453     -0.014692
Ir     11.70610      9.75846     11.53547         0.004225      0.003187     -0.004531
Ir      9.91975     11.72863      8.96001         0.006005     -0.012600      0.001156
Ir      9.11256      7.43368      8.76772         0.012867     -0.000508     -0.020285
Ir     11.64065      7.52137      7.71892         0.029246     -0.019617     -0.014707
Ir      9.25764      9.46709     13.00127         0.002295     -0.007600     -0.006680
Ir      7.50469     13.89884      8.99308         0.003539     -0.004094      0.002460
Ir     10.86336     14.09974     11.95086        -0.006542     -0.007217      0.003970
Ir     10.11180     14.14493      9.51334        -0.001276     -0.001625     -0.000698
Ir      9.79268     11.67846     11.72073         0.001469     -0.014076      0.004878
Ir      7.59317     11.56087     10.20334        -0.000871     -0.003320     -0.002695
Ir      8.34453     13.73256     11.57987        -0.002114     -0.003909     -0.000254
Ir      7.52724     11.53901     12.81848        -0.002855     -0.004495      0.002128
Ir      9.78038     11.58932     14.34039         0.003398     -0.007504      0.003107
Ir     13.46551     13.88459     12.18486        -0.002218     -0.003435     -0.001018
Ir     11.99070     12.04347     13.07575         0.001910     -0.006851     -0.011870
Ir     11.58867      9.77901     14.17438         0.003311     -0.010541     -0.010042
Ir      7.16068      9.34496     11.47538        -0.004444     -0.006783     -0.001944
