13
# total energy = -26.47272618 eVAu     13.70570     18.02726     14.61183         0.082539      0.240378     -0.061486
Au     17.95841     15.94003     14.61389         0.503825      0.127567     -0.107949
Au     14.03985     13.29076     14.61397        -0.109948     -0.019174     -0.058722
Au     13.92644     10.72876     14.21234         0.135565      0.299046      0.080584
Au     11.54718     19.41891     14.21718         0.204357     -0.281553      0.082098
Au     20.27560     17.14336     14.20622        -0.602884     -0.170396      0.127666
Au     16.78090     13.49047     14.65599        -0.082539     -0.240378      0.061486
Au     12.52816     15.57770     14.65393        -0.503825     -0.127567      0.107949
Au     16.44672     18.22697     14.65385         0.109948      0.019174      0.058722
Au     16.56016     20.78897     15.05548        -0.135565     -0.299046     -0.080584
Au     18.93942     12.09882     15.05064        -0.204357      0.281553     -0.082098
Au     10.21100     14.37437     15.06160         0.602884      0.170396     -0.127666
Au     15.24330     15.75888     14.63391         0.000000      0.000000      0.000000
