13
# total energy = -29.34055628 eVAu     15.65245     16.31244     14.03171         0.015045      0.122782     -0.063071
Au     13.71736     15.43424     12.24079         0.027317     -0.008622      0.039513
Au     17.59296     15.79006     12.12483         0.092751     -0.100485      0.026454
Au     13.39436     12.98702     13.57396        -0.102171     -0.186005      0.004072
Au     17.87992     14.17064     14.30088        -0.225164     -0.009339      0.032978
Au     15.83381     13.62992     12.50774         0.126233     -0.014418     -0.030690
Au     16.39243     18.14356     16.10002         0.071174      0.024849     -0.001927
Au     14.59413     16.03918     16.93469         0.025583     -0.153119     -0.169320
Au     17.26236     15.49854     16.61757        -0.026433      0.039385     -0.061129
Au     12.85441     15.32411     14.89585        -0.035224      0.079332      0.099530
Au     18.38530     17.01012     14.50228         0.011368      0.059017      0.045679
Au     13.76180     17.96922     15.19655        -0.037865     -0.027855      0.130872
Au     15.29322     13.71095     15.42931         0.057388      0.174478     -0.052963
