13
# total energy = -25.36471886 eVAu     14.68680     16.09098      9.80882         0.000000     -0.000000     -0.000474
Au     13.63848     14.07179     11.25939         0.001010      0.002055     -0.038000
Au     15.73512     18.11020     11.25939        -0.001010     -0.002055     -0.038000
Au     16.70602     15.04266     11.25939        -0.002055      0.001010     -0.038000
Au     12.66758     17.13933     11.25939         0.002055     -0.001010     -0.038000
Au     14.68680     16.09098     12.74401         0.000000     -0.000000     -0.014579
Au     14.68680     16.09098     20.82718         0.000000      0.000000      0.000474
Au     13.63848     14.07179     19.37661         0.001010      0.002055      0.038000
Au     16.70602     15.04266     19.37661        -0.002055      0.001010      0.038000
Au     15.73512     18.11020     19.37661        -0.001010     -0.002055      0.038000
Au     12.66758     17.13933     19.37661         0.002055     -0.001010      0.038000
Au     14.68680     16.09098     17.89199         0.000000      0.000000      0.014579
Au     14.68680     16.09098     15.31800         0.000000     -0.000000     -0.000000
