13
# total energy = -29.95987533 eVAu     15.13039     16.68774     13.92116        -0.000179     -0.024208      0.030246
Au     12.51786     16.99565     13.14378         0.023098     -0.023716     -0.005922
Au     14.22882     15.20730     11.79296        -0.017037      0.021170      0.007907
Au     14.29716     13.64364     14.08866         0.017749      0.040999      0.037804
Au     16.65266     14.40432     12.96523         0.038975     -0.009929     -0.012114
Au     15.88784     17.64478     16.43373        -0.071356      0.033347     -0.001501
Au     13.97573     16.38848     17.90162        -0.020440     -0.005250     -0.020081
Au     16.59720     15.23275     17.74751         0.003314     -0.015807      0.042075
Au     12.62872     15.36182     15.39425         0.056041     -0.005143      0.005127
Au     17.53757     15.95793     15.13089        -0.002986     -0.035174     -0.059917
Au     13.21653     17.99785     15.67490        -0.023903      0.044744      0.014522
Au     14.41403     13.85831     16.81100         0.002580      0.033399      0.008677
Au     16.87825     13.37036     15.61538        -0.005858     -0.054432     -0.046824
