13
# total energy = -28.10953484 eVAu     14.70800     17.13986     11.91910        -0.002128      0.077886     -0.396000
Au     15.53720     19.48389     13.75723         0.203989     -0.048104      0.107672
Au     17.53596     17.35226     13.01805         0.038717     -0.124095     -0.106695
Au     12.89953     18.00171     13.81241        -0.241801      0.161324      0.085249
Au     13.35808     15.27588     13.44543        -0.261062     -0.330703     -0.040402
Au     16.14001     14.86590     12.85661         0.177157     -0.042172     -0.086683
Au     15.31417     16.80595     14.64328        -0.017619      0.126840      0.454467
Au     17.34337     18.46755     15.59078        -0.043912      0.163516      0.002831
Au     14.59790     18.76262     16.50533        -0.059310     -0.225266      0.017240
Au     16.26456     16.59141     17.32602         0.160723      0.131208      0.217444
Au     13.00023     16.40793     16.19590         0.068076      0.182298     -0.158642
Au     14.81366     14.16192     15.44669        -0.169130     -0.152821     -0.045540
Au     17.76682     15.58046     15.27213         0.146302      0.080089     -0.050943
