13
# total energy = -28.12885982 eVAu     14.29987     15.53455     11.84272         0.091165      0.359167     -0.138569
Au     11.99265     16.08888     13.45262         0.086585     -0.137394     -0.117968
Au     15.72381     13.59551     13.29645         0.310797     -0.361386     -0.346046
Au     14.08559     18.17000     13.24374        -0.229463     -0.230015      0.140972
Au     13.02327     13.33750     13.75306        -0.230355      0.043310      0.396948
Au     16.75505     16.27815     13.08983         0.115180     -0.196412      0.143601
Au     17.01504     15.14766     15.72622        -0.086585      0.137394      0.117968
Au     13.28385     17.64112     15.88233        -0.310797      0.361386      0.346046
Au     14.70773     15.70208     17.33621        -0.091165     -0.359167      0.138569
Au     14.50386     15.61830     14.58942        -0.000000     -0.000000      0.000000
Au     14.92213     13.06660     15.93513         0.229463      0.230015     -0.140972
Au     15.98454     17.89907     15.42578         0.230355     -0.043310     -0.396948
Au     12.25264     14.95842     16.08898        -0.115180      0.196412     -0.143601
