13
# total energy = -29.92430395 eVAu     14.57736     16.70555     12.98672        -0.003977     -0.025369      0.019907
Au     11.72923     16.56323     12.79067         0.009590      0.004916      0.012984
Au     13.23495     14.91233     11.20892         0.013574     -0.003210      0.005201
Au     11.01675     13.79310     12.63788         0.041788      0.040118      0.001109
Au     17.18522     15.95358     13.88680        -0.012766     -0.012141     -0.010446
Au     13.56910     13.11737     13.37829        -0.032143      0.002223      0.001147
Au     15.77278     14.36011     12.13359         0.008827     -0.010640     -0.000051
Au     15.67858     17.60436     15.46829        -0.017583     -0.003562     -0.002928
Au     14.25285     15.36799     16.47367         0.039746     -0.011304      0.009234
Au     16.98783     15.36550     16.68477        -0.030315      0.019774     -0.048675
Au     12.95045     17.45443     15.09663        -0.008887      0.007975      0.009974
Au     12.04726     14.78657     14.97773        -0.017183     -0.025508     -0.025712
Au     15.77584     13.69894     14.87506         0.009330      0.016726      0.028256
