13
# total energy = -28.93643182 eVAu     14.77305     17.09697     11.81605        -0.203625      0.147554     -0.216444
Au     15.66217     19.48168     13.59711        -0.159623      0.134306     -0.332530
Au     17.19207     17.26709     13.04098         0.322037      0.310788      0.174268
Au     13.21375     18.04632     13.87217         0.129902     -0.046334      0.233371
Au     13.14307     15.35270     12.98670         0.036890     -0.069669      0.180923
Au     16.15052     14.77840     13.25480        -0.186734     -0.431559     -0.145849
Au     15.28365     16.42266     15.11851         0.156949     -0.021046      0.307142
Au     17.22822     18.84042     15.58696         0.072748     -0.102317      0.012129
Au     14.64041     18.41375     16.72103        -0.174934     -0.127451     -0.070814
Au     17.31781     17.15162     17.62614        -0.118965      0.138908      0.060990
Au     12.71095     16.26252     15.89463         0.101121      0.128856     -0.024657
Au     13.93572     13.78915     14.99993        -0.023357      0.052351     -0.199052
Au     18.02808     15.99407     15.27395         0.047592     -0.114387      0.020524
