13
# total energy = -30.15622174 eVAu     12.96855     13.91974     12.60947         0.135787     -0.120392     -0.141998
Au     16.55305     16.65222     13.96686        -0.066110      0.040841     -0.090761
Au     13.83066     16.94702     13.42268         0.128974     -0.154336      0.229862
Au     15.50874     12.50424     12.12048        -0.031328      0.033478     -0.024134
Au     17.61790     13.99586     13.24574        -0.125472      0.009660     -0.074328
Au     15.36011     15.22775     11.99278        -0.077647     -0.027565     -0.060196
Au     14.91101     13.61089     14.55170         0.160597      0.078413      0.134736
Au     17.38241     17.11741     16.52494        -0.207727      0.083215      0.243364
Au     14.90114     18.12778     15.71804         0.056527     -0.053668      0.023613
Au     17.15106     14.29387     15.98543         0.000761      0.064187     -0.021022
Au     12.58478     15.07329     15.04105        -0.057971      0.124905      0.103096
Au     19.07263     15.87280     14.74919         0.173786     -0.180753     -0.102264
Au     14.83601     15.53601     16.60330        -0.090179      0.102014     -0.219968
