13
# total energy = -28.13549387 eVAu     14.14713     16.13841     12.25106        -0.037303      0.005229     -0.050002
Au     16.47746     17.87703     12.51591         0.013749      0.044968     -0.047922
Au     18.54094     16.40420     13.96238         0.069831      0.010408     -0.012504
Au     14.77114     13.59316     13.53572        -0.023941     -0.059255     -0.022823
Au     16.83465     15.01881     12.04282         0.024024     -0.023707     -0.059223
Au     15.84066     15.98724     14.44647         0.000000      0.000000      0.000000
Au     16.91018     18.38132     15.35722         0.023941      0.059255      0.022823
Au     14.84667     16.95564     16.85012        -0.024024      0.023707      0.059223
Au     17.53419     15.83604     16.64191         0.037303     -0.005229      0.050002
Au     13.14038     15.57025     14.93059        -0.069831     -0.010408      0.012504
Au     14.19331     18.21794     14.30134        -0.036933      0.049967     -0.005221
Au     15.20386     14.09745     16.37706        -0.013749     -0.044968      0.047922
Au     17.48798     13.75651     14.59163         0.036933     -0.049967      0.005221
