13
# total energy = -28.60772750 eVAu     12.04665     15.96003     12.98199        -1.394250      1.266938     -1.204000
Au     16.52985     16.93305     13.40271         0.123740      1.044788     -1.464710
Au     13.91517     17.49138     14.17149        -0.443715      1.332548     -0.838585
Au     12.48795     13.44714     13.53015        -0.813479     -1.869070     -0.499386
Au     17.04777     14.40354     14.08026         1.070779     -1.065446     -0.136800
Au     14.58444     15.06876     13.02066         0.481347     -0.090604     -1.600324
Au     15.46908     15.67146     15.79392         0.019583     -0.931384      1.118805
Au     16.05975     18.52317     15.51657         0.182091      1.986317     -0.910934
Au     13.92423     17.55750     16.86999        -1.500513     -0.001970      0.869484
Au     16.44651     17.23467     17.74425         0.762050      0.041487      2.027164
Au     12.82512     15.28722     15.42462        -0.744176      0.294462      1.721456
Au     17.97339     16.56936     15.61800         1.925656     -0.440826      0.333669
Au     14.70561     13.21776     14.92920         0.330887     -1.567240      0.584161
