13
# total energy = -28.25598041 eVAu     16.10617     15.05319     12.31206        -0.448233      0.305567      0.007181
Au     12.19817     16.26303     12.31206         0.448233     -0.305567      0.007181
Au     14.75709     17.61211     12.31206        -0.305567     -0.448233      0.007181
Au     13.54725     13.70411     12.31206         0.305567      0.448233      0.007181
Au     16.10617     16.26303     16.89291        -0.448233     -0.305567     -0.007181
Au     13.54725     17.61211     16.89291         0.305567     -0.448233     -0.007181
Au     14.75709     13.70411     16.89291        -0.305567      0.448233     -0.007181
Au     12.19817     15.05319     16.89291         0.448233      0.305567     -0.007181
Au     14.15217     15.65811     14.60247         0.000000      0.000000     -0.000000
Au     12.20497     17.60531     14.60247         0.110981     -0.110981      0.000000
Au     16.09937     13.71091     14.60247        -0.110981      0.110981     -0.000000
Au     12.20497     13.71091     14.60247         0.110981      0.110981      0.000000
Au     16.09937     17.60531     14.60247        -0.110981     -0.110981     -0.000000
