13
# total energy = -28.14259650 eVAu     14.31296     15.54600     11.84773         0.066150      0.415929     -0.188561
Au     11.99648     16.07691     13.43301         0.098571     -0.110990     -0.097991
Au     15.68943     13.59895     13.29580         0.495856     -0.465387     -0.410038
Au     14.06017     18.20443     13.25266        -0.218475     -0.291284      0.124181
Au     13.02110     13.31383     13.77214        -0.329584      0.060819      0.454969
Au     16.76338     16.26207     13.09554         0.103553     -0.170503      0.178448
Au     17.01121     15.15963     15.74583        -0.098571      0.110990      0.097991
Au     13.31823     17.63768     15.88298        -0.495856      0.465387      0.410038
Au     14.69464     15.69063     17.33120        -0.066150     -0.415929      0.188561
Au     14.50386     15.61830     14.58942        -0.000000      0.000000      0.000000
Au     14.94755     13.03217     15.92621         0.218475      0.291284     -0.124181
Au     15.98671     17.92274     15.40670         0.329584     -0.060819     -0.454969
Au     12.24431     14.97450     16.08327        -0.103553      0.170503     -0.178448
