13
# total energy = -29.97119826 eVAu     15.11957     16.68297     13.92223         0.003457      0.018971     -0.016926
Au     12.52082     16.99408     13.15165         0.000713     -0.003346      0.004490
Au     14.24459     15.20917     11.79429        -0.003068      0.007531      0.002533
Au     14.36569     13.69368     14.11504        -0.005041      0.001302      0.006229
Au     16.70140     14.37445     12.90981        -0.000543     -0.003389      0.003233
Au     15.82156     17.62279     16.42417         0.003291     -0.003541     -0.004389
Au     13.91292     16.38765     17.90430        -0.004689     -0.004517      0.001033
Au     16.62618     15.25327     17.74165        -0.015508      0.003108     -0.007323
Au     12.69536     15.40813     15.42440         0.008579     -0.003421     -0.001217
Au     17.48150     15.89671     15.12464        -0.003264      0.006271     -0.001786
Au     13.15801     18.06679     15.68916         0.008741      0.000257     -0.006714
Au     14.45270     13.87038     16.84823         0.009824     -0.019491      0.011993
Au     16.86247     13.29087     15.57151        -0.002492      0.000266      0.008846
