13
# total energy = -26.37820672 eVAu     14.99417     16.28879     12.58591         0.285189      0.602112     -1.818374
Au     12.58827     15.11203     13.38467        -1.468447     -0.256710     -1.236323
Au     14.91635     13.57265     13.23969         0.226775     -1.377503     -1.342645
Au     13.28652     17.64686     14.33253        -0.959914      1.592205     -0.546205
Au     16.04626     17.67398     14.77347         1.051533      1.612057     -0.224957
Au     17.05359     15.15597     14.09805         1.786206     -0.223713     -0.717037
Au     16.61868     15.81392     16.77928         1.468447      0.256710      1.236323
Au     14.29060     17.35327     16.92426        -0.226775      1.377503      1.342645
Au     14.21275     14.63713     17.57801        -0.285189     -0.602112      1.818374
Au     14.60346     15.46296     15.08196         0.000000     -0.000000      0.000000
Au     15.92043     13.27909     15.83139         0.959914     -1.592205      0.546205
Au     13.16069     13.25194     15.39048        -1.051533     -1.612057      0.224957
Au     12.15336     15.76995     16.06590        -1.786206      0.223713      0.717037
