13
# total energy = -27.99158076 eVAu     14.26800     15.50823     11.82959         0.087761      0.217900     -0.050003
Au     11.98368     16.11777     13.50039         0.055286     -0.160729     -0.112478
Au     15.81047     13.58499     13.29620        -0.013469     -0.148622     -0.182815
Au     14.14713     18.08395     13.22240        -0.196981     -0.094244      0.119886
Au     13.02723     13.39604     13.70814        -0.050667      0.004325      0.217357
Au     16.73506     16.31684     13.07654         0.119963     -0.192546      0.069433
Au     17.02401     15.11877     15.67845        -0.055286      0.160729      0.112478
Au     13.19719     17.65164     15.88258         0.013469      0.148622      0.182815
Au     14.73960     15.72840     17.34934        -0.087761     -0.217900      0.050003
Au     14.50386     15.61830     14.58942         0.000000      0.000000      0.000000
Au     14.86059     13.15265     15.95647         0.196981      0.094244     -0.119886
Au     15.98058     17.84053     15.47070         0.050667     -0.004325     -0.217357
Au     12.27263     14.91973     16.10227        -0.119963      0.192546     -0.069433
