13
# total energy = -29.06910869 eVAu     14.56851     15.96492     11.77956         0.003969      0.037066     -0.005570
Au     12.10363     15.80768     13.20561        -0.034458     -0.008791     -0.038924
Au     15.47584     13.57365     12.98250        -0.007398     -0.067869     -0.000745
Au     13.70190     18.12961     13.38415        -0.024968      0.013723      0.036803
Au     12.93677     13.30716     14.25158        -0.014346     -0.059829      0.015871
Au     17.02796     15.92312     13.18433         0.022995     -0.020663      0.004454
Au     16.90406     15.42886     15.97323         0.034458      0.008791      0.038924
Au     13.53182     17.66298     16.19628         0.007398      0.067869      0.000745
Au     14.43909     15.27171     17.39937        -0.003969     -0.037066      0.005570
Au     14.50386     15.61830     14.58942         0.000000     -0.000000     -0.000000
Au     15.30582     13.10699     15.79472         0.024968     -0.013723     -0.036803
Au     16.07104     17.92941     14.92726         0.014346      0.059829     -0.015871
Au     11.97973     15.31345     15.99448        -0.022995      0.020663     -0.004454
