13
# total energy = -26.86950657 eVAu     15.87567     14.78275     11.75520        -0.400108      0.030756      0.665122
Au     12.42867     16.53347     11.75520         0.400108     -0.030756      0.665122
Au     15.02753     17.38161     11.75520        -0.030756     -0.400108      0.665122
Au     13.27681     13.93461     11.75520         0.030756      0.400108      0.665122
Au     15.87567     16.53347     17.44977        -0.400108     -0.030756     -0.665122
Au     13.27681     17.38161     17.44977         0.030756     -0.400108     -0.665122
Au     15.02753     13.93461     17.44977        -0.030756      0.400108     -0.665122
Au     12.42867     14.78275     17.44977         0.400108      0.030756     -0.665122
Au     14.15217     15.65811     14.60247        -0.000000      0.000000      0.000000
Au     12.31619     17.49409     14.60247         0.128351     -0.128351     -0.000000
Au     15.98815     13.82213     14.60247        -0.128351      0.128351      0.000000
Au     12.31619     13.82213     14.60247         0.128351      0.128351     -0.000000
Au     15.98815     17.49409     14.60247        -0.128351     -0.128351     -0.000000
