13
# total energy = -26.20975587 eVAu     13.58160     17.90582     14.42008         0.050853      0.079960      0.163340
Au     17.92805     16.12665     14.42101         0.128324     -0.080314      0.155108
Au     14.21936     13.24576     14.42868        -0.119447      0.008167      0.157551
Au     13.82552     10.71687     14.19274         0.079482      0.079816      0.013789
Au     11.58733     19.51356     14.20096         0.035170     -0.115203      0.011338
Au     20.32468     17.05307     14.19299        -0.182998      0.000350      0.018828
Au     16.90500     13.61191     14.84774        -0.050853     -0.079960     -0.163340
Au     12.55852     15.39108     14.84681        -0.128324      0.080314     -0.155108
Au     16.26721     18.27197     14.83914         0.119447     -0.008167     -0.157551
Au     16.66108     20.80086     15.07508        -0.079482     -0.079816     -0.013789
Au     18.89927     12.00417     15.06686        -0.035170      0.115203     -0.011338
Au     10.16192     14.46466     15.07483         0.182998     -0.000350     -0.018828
Au     15.24330     15.75888     14.63391        -0.000000      0.000000     -0.000000
