13
# total energy = -25.36475712 eVAu     14.68680     16.09098      9.80887         0.000000      0.000000      0.000381
Au     13.63846     14.07176     11.25938         0.000867      0.001783     -0.038078
Au     15.73514     18.11023     11.25938        -0.000867     -0.001783     -0.038078
Au     16.70605     15.04264     11.25938        -0.001783      0.000867     -0.038078
Au     12.66755     17.13935     11.25938         0.001783     -0.000867     -0.038078
Au     14.68680     16.09098     12.74408         0.000000      0.000000     -0.015011
Au     14.68680     16.09098     20.82713         0.000000      0.000000     -0.000381
Au     13.63846     14.07176     19.37662         0.000867      0.001783      0.038078
Au     16.70605     15.04264     19.37662        -0.001783      0.000867      0.038078
Au     15.73514     18.11023     19.37662        -0.000867     -0.001783      0.038078
Au     12.66755     17.13935     19.37662         0.001783     -0.000867      0.038078
Au     14.68680     16.09098     17.89192         0.000000     -0.000000      0.015011
Au     14.68680     16.09098     15.31800         0.000000      0.000000     -0.000000
