13
# total energy = -28.19256543 eVAu     14.32443     15.56197     11.84860         0.061225      0.444884     -0.201280
Au     12.00116     16.06560     13.41578         0.110257     -0.100908     -0.088932
Au     15.67027     13.59403     13.28857         0.539123     -0.476740     -0.431191
Au     14.03633     18.22723     13.26173        -0.204773     -0.339713      0.117690
Au     13.01383     13.29587     13.79484        -0.352660      0.089345      0.496823
Au     16.77168     16.24655     13.10307         0.093643     -0.150912      0.200154
Au     17.00653     15.17094     15.76306        -0.110257      0.100908      0.088932
Au     13.33739     17.64260     15.89021        -0.539123      0.476740      0.431191
Au     14.68317     15.67466     17.33033        -0.061225     -0.444884      0.201280
Au     14.50386     15.61830     14.58942         0.000000      0.000000      0.000000
Au     14.97139     13.00937     15.91714         0.204773      0.339713     -0.117690
Au     15.99398     17.94070     15.38400         0.352660     -0.089345     -0.496823
Au     12.23601     14.99002     16.07574        -0.093643      0.150912     -0.200154
