13
# total energy = -30.04730782 eVAu     11.93909     16.04713     12.88872         0.023800      0.043559     -0.084208
Au     16.48168     17.03852     13.33666         0.099411     -0.038301      0.020566
Au     13.88983     17.63630     14.01778        -0.063543     -0.047205      0.082856
Au     12.39007     13.37903     13.55922         0.001173     -0.022944     -0.036271
Au     17.09788     14.41411     14.12606        -0.038606     -0.047873     -0.029989
Au     14.58851     15.03599     12.87495        -0.093555      0.034743      0.018611
Au     15.54726     15.40788     16.15172         0.026668     -0.093704      0.105329
Au     16.04531     18.66383     15.45504        -0.082708      0.052968     -0.133385
Au     13.86424     17.38134     16.91463         0.060173      0.060517     -0.047462
Au     16.56241     17.45840     17.81448         0.023658     -0.022126      0.052110
Au     12.77333     15.37009     15.43973         0.211157     -0.029354      0.067195
Au     18.09390     16.46873     15.66506        -0.138700      0.049743      0.037126
Au     14.74200     13.06369     14.83975        -0.028928      0.059977     -0.052479
