13
# total energy = -28.17991640 eVAu     14.66016     17.11773     11.88963         0.078780      0.066111     -0.281398
Au     15.59679     19.53736     13.76934         0.067567     -0.063551     -0.053381
Au     17.55133     17.32056     13.01279        -0.051970     -0.152047     -0.099425
Au     12.89394     18.00320     13.79625        -0.204268      0.102563      0.131408
Au     13.38348     15.26391     13.46852        -0.370526     -0.235222     -0.216290
Au     16.15873     14.87629     12.85035         0.119838      0.085143      0.030176
Au     15.30418     16.82792     14.65978        -0.052456     -0.118873      0.183238
Au     17.29519     18.47601     15.56578         0.290364      0.255494      0.182240
Au     14.59516     18.72364     16.53832        -0.163491     -0.144163      0.057748
Au     16.32357     16.61111     17.33756         0.098886      0.092650      0.373897
Au     12.96464     16.42085     16.18705         0.086801      0.209872     -0.176596
Au     14.77314     14.12207     15.42033        -0.052062     -0.170412      0.079228
Au     17.77915     15.59669     15.29325         0.152537      0.072433     -0.210845
