13
# total energy = -28.03307443 eVAu     15.03209     15.98290     14.73402        -0.078192      0.568411     -0.411340
Au     12.74362     16.91204     13.28844        -1.383567      0.808646     -1.153281
Au     14.27924     15.27301     12.07575         0.233604     -0.351992     -1.733886
Au     14.25935     13.47534     13.98399        -0.695098     -1.131367     -0.026596
Au     16.68058     14.62291     13.08800         0.834214      0.163440     -3.372750
Au     15.98133     17.83817     16.45556         0.738137      1.657502      0.022547
Au     14.01168     16.37434     17.53518        -1.268436      0.571326      1.447877
Au     16.44641     15.42029     17.41021         1.316674     -1.104205      1.135336
Au     12.46957     15.34546     15.40068        -1.161196     -0.419770      0.115174
Au     17.70646     16.04751     15.08989         1.525132      1.030092      0.266435
Au     13.38918     18.00506     15.53165        -0.498728      1.608149      0.730175
Au     14.28218     13.87449     16.70319        -0.000611     -1.457504      0.538264
Au     16.68106     13.57940     15.32453         0.438067     -1.942728      2.442046
