13
# total energy = -30.13811279 eVAu     11.95059     16.07092     12.89938        -0.012550     -0.001955      0.001165
Au     16.46192     17.04282     13.34751        -0.003054     -0.003667     -0.019072
Au     13.85852     17.66441     14.02658        -0.014564      0.018994     -0.009883
Au     12.35154     13.37817     13.46196         0.061647     -0.002873     -0.025423
Au     16.97568     14.43272     14.13996         0.006072     -0.008571     -0.016438
Au     14.56408     15.04727     12.80600        -0.009013      0.017060     -0.003798
Au     15.62660     15.18532     16.46006        -0.014999      0.005855      0.000077
Au     16.02843     18.77820     15.38743         0.006518     -0.010428     -0.009185
Au     13.99676     17.37525     16.82814         0.009914     -0.003139      0.024796
Au     16.58077     17.56136     17.81114        -0.006904     -0.018066      0.010344
Au     12.98468     15.27731     15.40250        -0.005509      0.018278      0.005452
Au     17.96512     16.49433     15.69218        -0.004637     -0.004309     -0.008971
Au     14.67084     13.05696     14.82096        -0.012920     -0.007181      0.050937
