13
# total energy = -30.09603042 eVAu     13.02514     14.10803     12.71215        -0.028880     -0.002464     -0.032890
Au     16.60440     16.68761     13.85609        -0.030135      0.007134     -0.006302
Au     13.91494     16.81709     13.18339        -0.043816     -0.024437      0.008616
Au     15.30340     12.55959     12.12804         0.049424     -0.038877      0.000945
Au     17.56255     13.96270     13.26537        -0.015474     -0.025665     -0.014522
Au     15.57600     15.23131     11.76557        -0.028364      0.032895      0.053072
Au     14.97550     13.73023     14.60682        -0.019346     -0.018474     -0.019545
Au     17.24220     17.20940     16.47807         0.039128      0.008368     -0.003197
Au     14.64169     17.67281     15.70798         0.031235      0.034947      0.015735
Au     17.22029     14.43122     16.02801         0.006173     -0.011675      0.002367
Au     12.69293     15.36837     15.16564        -0.008907      0.011310     -0.048177
Au     19.09615     15.86525     14.70042         0.000213      0.010356      0.047814
Au     14.82288     15.23527     16.93411         0.048750      0.016583     -0.003915
