13
# total energy = -28.07912966 eVAu     15.84024     14.71515     12.08657        -0.002413      0.046130      0.033191
Au     12.46410     16.60107     12.08657         0.002413     -0.046130      0.033191
Au     15.09513     17.34618     12.08657        -0.046130     -0.002413      0.033191
Au     13.20921     13.97004     12.08657         0.046130      0.002413      0.033191
Au     15.84024     16.60107     17.11840        -0.002413     -0.046130     -0.033191
Au     13.20921     17.34618     17.11840         0.046130     -0.002413     -0.033191
Au     15.09513     13.97004     17.11840        -0.046130      0.002413     -0.033191
Au     12.46410     14.71515     17.11840         0.002413      0.046130     -0.033191
Au     14.15217     15.65811     14.60247        -0.000000     -0.000000      0.000000
Au     12.27775     17.53253     14.60247        -0.030051      0.030051      0.000000
Au     16.02659     13.78369     14.60247         0.030051     -0.030051      0.000000
Au     12.27775     13.78369     14.60247        -0.030051     -0.030051      0.000000
Au     16.02659     17.53253     14.60247         0.030051      0.030051      0.000000
