13
# total energy = -29.87732886 eVAu     14.43483     16.17901     13.40207         0.031171      0.115572     -0.095028
Au     11.63060     16.63482     12.85262         0.087331     -0.044821      0.012421
Au     13.28346     14.82369     11.11974         0.006417      0.037313      0.087082
Au     11.03609     13.94858     12.49333        -0.007300     -0.038262      0.029115
Au     17.28092     15.87661     13.82942        -0.095284      0.010245      0.017102
Au     13.56832     13.15929     13.34083         0.062112     -0.021863      0.006068
Au     15.84683     14.30935     12.04528         0.020651      0.014090     -0.030587
Au     15.62749     17.68695     15.56265        -0.013721     -0.069230     -0.060350
Au     14.27859     15.41022     16.44451        -0.070888      0.006857      0.004325
Au     17.05670     15.53412     16.57390        -0.010970     -0.039453      0.029637
Au     12.88824     17.55112     15.14967        -0.007737      0.037866     -0.009899
Au     12.05065     14.82251     14.93336         0.014958      0.034901      0.059625
Au     15.79546     13.74679     14.85164        -0.016740     -0.043216     -0.049511
