13
# total energy = -30.09032797 eVAu     13.00848     14.10864     12.72441        -0.037548     -0.008314     -0.069201
Au     16.60521     16.68495     13.85229        -0.033582      0.018799      0.020475
Au     13.91251     16.79669     13.17086        -0.013404      0.016792      0.024002
Au     15.28366     12.57221     12.12087         0.066397     -0.086893     -0.026275
Au     17.57230     13.95506     13.27290        -0.039780     -0.010902     -0.037077
Au     15.59581     15.23218     11.75764        -0.022925      0.039200      0.049799
Au     14.97631     13.73832     14.59061         0.018416      0.035601      0.104473
Au     17.23997     17.22195     16.47680         0.024026     -0.023269     -0.027108
Au     14.63665     17.65887     15.70636         0.026178      0.005117     -0.005119
Au     17.22821     14.43271     16.02641        -0.084839     -0.011550      0.024292
Au     12.69449     15.38144     15.17159         0.006540      0.005286     -0.004697
Au     19.09592     15.87111     14.71366         0.027334      0.025731      0.020757
Au     14.82854     15.22477     16.94728         0.063186     -0.005599     -0.074321
