13
# total energy = -29.72361980 eVAu     11.28092     16.85711     12.09905        -0.242541      0.098326     -0.213042
Au     14.00420     16.43685     12.12510         0.035645      0.138892     -0.236784
Au     16.69432     15.87474     12.32658         0.278162      0.003522     -0.189245
Au     12.22542     14.27050     12.47104        -0.103387     -0.213076     -0.257741
Au     14.87564     13.78955     12.58247         0.042609     -0.239553     -0.250861
Au     15.51213     17.33355     14.34344         0.166704      0.214858     -0.044014
Au     14.21673     18.60288     16.41812         0.039411      0.266658      0.202803
Au     12.37591     16.54217     16.71064        -0.251802      0.081522      0.230524
Au     15.18768     16.03193     16.82889         0.244224     -0.007453      0.250097
Au     10.93856     15.68748     14.59618        -0.328969      0.035506      0.116688
Au     12.73170     17.83818     14.22653        -0.075308      0.258565     -0.054109
Au     13.64152     15.04386     14.73749        -0.113000     -0.558724      0.303521
Au     16.40058     14.69627     14.82583         0.308251     -0.079044      0.142164
