13
# total energy = -26.92122630 eVAu     17.47624     17.08907     13.87287        -0.533305     -0.371956      0.308354
Au     11.57402     15.01309     13.87287         0.533305      0.371956      0.308354
Au     15.43611     19.00219     13.74586        -0.308354     -0.533305      0.371956
Au     13.61415     13.09997     13.74586         0.308354      0.533305      0.371956
Au     15.56312     16.96206     11.83271        -0.371956     -0.308354      0.533305
Au     13.48714     15.14010     11.83271         0.371956      0.308354      0.533305
Au     11.57402     17.08907     15.69480         0.533305     -0.371956     -0.308354
Au     17.47624     15.01309     15.69480        -0.533305      0.371956     -0.308354
Au     15.43611     13.09997     15.82184        -0.308354      0.533305     -0.371956
Au     13.61415     19.00219     15.82184         0.308354     -0.533305     -0.371956
Au     13.48714     16.96206     17.73496         0.371956     -0.308354     -0.533305
Au     15.56312     15.14010     17.73496        -0.371956      0.308354     -0.533305
Au     14.52513     16.05108     14.78385         0.000000      0.000000     -0.000000
