13
# total energy = -25.36250754 eVAu     14.68680     16.09098      9.80218         0.000000      0.000000     -0.014337
Au     13.64026     14.07522     11.26065        -0.015266     -0.029354     -0.056354
Au     15.73334     18.10677     11.26065         0.015266      0.029354     -0.056354
Au     16.70259     15.04444     11.26065         0.029354     -0.015266     -0.056354
Au     12.67101     17.13755     11.26065        -0.029354      0.015266     -0.056354
Au     14.68680     16.09098     12.73623         0.000000      0.000000      0.134277
Au     14.68680     16.09098     20.83382         0.000000      0.000000      0.014337
Au     13.64026     14.07522     19.37535        -0.015266     -0.029354      0.056354
Au     16.70259     15.04444     19.37535         0.029354     -0.015266      0.056354
Au     15.73334     18.10677     19.37535         0.015266      0.029354      0.056354
Au     12.67101     17.13755     19.37535        -0.029354      0.015266      0.056354
Au     14.68680     16.09098     17.89977         0.000000      0.000000     -0.134277
Au     14.68680     16.09098     15.31800         0.000000      0.000000      0.000000
