13
# total energy = -30.03226912 eVAu     12.94008     14.06690     12.73226         0.004572      0.056298     -0.062147
Au     16.62535     16.73500     13.85036        -0.179453     -0.085646     -0.173478
Au     13.87207     16.74476     13.10643         0.133238      0.004034      0.073922
Au     15.25905     12.56189     12.11420         0.025386      0.091907      0.086934
Au     17.58155     13.97249     13.31074         0.036958     -0.067940     -0.184007
Au     15.64346     15.21985     11.76773        -0.057563      0.050861      0.048588
Au     14.95094     13.91318     14.53113         0.120766     -0.152992      0.061806
Au     17.24625     17.23321     16.45809        -0.037633     -0.090378      0.062131
Au     14.62891     17.56868     15.67046        -0.007909      0.023487      0.034023
Au     17.25304     14.34713     16.01769        -0.031374      0.146645      0.139465
Au     12.67476     15.43981     15.19945         0.069489     -0.016123      0.014715
Au     19.09963     15.90016     14.77439         0.001894     -0.042057     -0.011605
Au     14.90294     15.17580     16.99874        -0.078371      0.081903     -0.090346
