13
# total energy = -24.80570310 eVAu     13.49887     17.93965     14.04258         0.219019     -0.342502      0.776362
Au     18.00592     16.17132     14.04171        -0.389023     -0.007029      0.778491
Au     14.22290     13.16057     14.05063         0.186950      0.355527      0.767890
Au     13.76365     10.57839     14.22105         0.124898      0.522910     -0.063495
Au     11.49876     19.63437     14.22805         0.387930     -0.369967     -0.066834
Au     20.47288     17.06833     14.22361        -0.533563     -0.160155     -0.067549
Au     16.98773     13.57808     15.22524        -0.219019      0.342502     -0.776362
Au     12.48065     15.34641     15.22611         0.389023      0.007029     -0.778491
Au     16.26367     18.35716     15.21719        -0.186950     -0.355527     -0.767890
Au     16.72295     20.93934     15.04677        -0.124898     -0.522910      0.063495
Au     18.98784     11.88336     15.03977        -0.387930      0.369967      0.066834
Au     10.01372     14.44940     15.04421         0.533563      0.160155      0.067549
Au     15.24330     15.75888     14.63391         0.000000      0.000000     -0.000000
