13
# total energy = -29.48232642 eVAu     15.68567     16.62641     13.85098         0.096156      0.145156      0.023094
Au     13.80154     15.40382     12.36634        -0.054787     -0.076019     -0.014579
Au     17.73499     15.69221     12.18348        -0.050049     -0.089065      0.098359
Au     13.31392     12.88145     13.54867         0.103871      0.189416     -0.006731
Au     17.75661     14.10803     14.37809         0.097617      0.026976     -0.104127
Au     15.85278     13.53491     12.47736        -0.038485     -0.062422      0.063850
Au     16.40969     18.20173     16.06065        -0.024570     -0.015633      0.016379
Au     14.62286     15.89011     16.89011        -0.072237      0.120121      0.024480
Au     17.29851     15.57123     16.61126         0.005162      0.054582     -0.030867
Au     12.77416     15.28566     14.94355         0.021537     -0.089559      0.023786
Au     18.38740     17.07700     14.47592         0.004041     -0.032577     -0.007466
Au     13.74955     17.95887     15.37870         0.031905     -0.137042      0.033728
Au     15.22684     13.78857     15.29103        -0.120160     -0.033934     -0.119906
