13
# total energy = -25.66849796 eVAu     16.06911     15.16566     11.55861        -0.193696      0.193696      1.038991
Au     14.11527     17.11953     11.55861         0.193696     -0.193696      1.038991
Au     18.16764     15.16566     13.65714        -1.038991      0.193696      0.193696
Au     12.01674     17.11953     13.65714         1.038991     -0.193696      0.193696
Au     14.11527     19.21806     13.65714         0.193696     -1.038991      0.193696
Au     16.06911     13.06716     13.65714        -0.193696      1.038991      0.193696
Au     15.09219     16.14261     14.63406        -0.000000     -0.000000      0.000000
Au     14.11527     15.16566     17.70951         0.193696      0.193696     -1.038991
Au     16.06911     17.11953     17.70951        -0.193696     -0.193696     -1.038991
Au     18.16764     17.11953     15.61098        -1.038991     -0.193696     -0.193696
Au     12.01674     15.16566     15.61098         1.038991      0.193696     -0.193696
Au     16.06911     19.21806     15.61098        -0.193696     -1.038991     -0.193696
Au     14.11527     13.06716     15.61098         0.193696      1.038991     -0.193696
