13
# total energy = -26.38992235 eVAu     13.66529     18.04459     14.60506         0.226425     -0.127372     -0.041782
Au     18.02253     15.97775     14.60343        -0.343178     -0.148815     -0.028144
Au     14.04490     13.24830     14.60855         0.021545      0.257177     -0.047577
Au     13.90383     10.68918     14.20085         0.127994      0.298702      0.079426
Au     11.52736     19.45637     14.20671         0.175426     -0.249633      0.074633
Au     20.29543     17.13048     14.19956        -0.217607      0.015564      0.060931
Au     16.82131     13.47314     14.66276        -0.226425      0.127372      0.041782
Au     12.46404     15.53998     14.66439         0.343178      0.148815      0.028144
Au     16.44167     18.26943     14.65927        -0.021545     -0.257177      0.047577
Au     16.58277     20.82855     15.06697        -0.127994     -0.298702     -0.079426
Au     18.95924     12.06136     15.06111        -0.175426      0.249633     -0.074633
Au     10.19117     14.38725     15.06826         0.217607     -0.015564     -0.060931
Au     15.24330     15.75888     14.63391         0.000000     -0.000000     -0.000000
