13
# total energy = -29.59876309 eVAu     15.01029     16.11680     14.56106         0.321597      0.332598     -0.421524
Au     12.54582     16.96632     13.17719         0.052810      0.135365     -0.251147
Au     14.22866     15.21487     11.85572         0.045322      0.025907      0.108718
Au     14.23637     13.51657     14.01438        -0.080269     -0.044785     -0.104504
Au     16.72212     14.51819     12.93047        -0.188680     -0.027870     -0.153349
Au     16.05262     17.83730     16.46711        -0.002231      0.060018      0.005725
Au     14.00511     16.43370     17.69681         0.004075      0.036859      0.125916
Au     16.55166     15.30185     17.58407        -0.014427     -0.108836      0.223602
Au     12.50543     15.36396     15.31984        -0.191394     -0.309118      0.270480
Au     17.74602     16.06605     15.16206         0.035057      0.116592     -0.044821
Au     13.27017     18.08123     15.62950        -0.098562     -0.004193      0.026010
Au     14.31857     13.81041     16.76729        -0.040084      0.026368      0.068654
Au     16.76989     13.52367     15.45557         0.156787     -0.238905      0.146242
