13
# total energy = -29.91807880 eVAu     13.10201     16.47695     12.05975        -0.072341     -0.100910     -0.041299
Au     14.80268     17.23963     14.13390         0.054382      0.270803     -0.135591
Au     11.10067     15.25844     13.62474         0.058861     -0.006237     -0.033266
Au     17.49954     16.43460     13.99711         0.032801     -0.106833      0.133160
Au     12.04663     17.75369     14.41621        -0.085122     -0.151241     -0.003046
Au     13.50172     13.95229     13.27567        -0.079462      0.039658      0.010621
Au     15.66141     15.39127     12.22878        -0.098591      0.120878      0.015474
Au     12.99128     15.35023     15.66167        -0.086598     -0.013845      0.030901
Au     16.48106     17.89220     16.26311         0.044376     -0.045495      0.113853
Au     13.71706     17.97212     16.59721         0.127393      0.022984     -0.086385
Au     17.72366     15.38119     16.56383        -0.053018      0.041209      0.015563
Au     15.11987     15.69178     17.41103         0.086021     -0.011612     -0.025234
Au     15.66209     14.44946     14.94712         0.071297     -0.059359      0.005250
