13
# total energy = -27.93073449 eVAu     14.80522     17.19326     11.93600        -0.184464     -0.069016     -0.157320
Au     15.44523     19.35453     13.75421         0.164521      0.366956     -0.049248
Au     17.50188     17.39669     13.02326         0.153618     -0.050617     -0.094334
Au     12.88755     18.01376     13.85875        -0.073890      0.052643     -0.101531
Au     13.28007     15.26056     13.40034         0.052778     -0.039918      0.030763
Au     16.12276     14.84791     12.86236         0.073125     -0.070720     -0.073852
Au     15.33226     16.78191     14.67756        -0.035115      0.048818     -0.066455
Au     17.42186     18.46226     15.63585        -0.051796      0.086456     -0.036986
Au     14.60066     18.79918     16.43323        -0.041581      0.028743      0.196791
Au     16.16887     16.57477     17.31729         0.163954     -0.011932      0.132539
Au     13.09213     16.41086     16.18116        -0.263284     -0.044421      0.120721
Au     14.87020     14.23353     15.48628        -0.084122     -0.237093     -0.006846
Au     17.75075     15.56813     15.22270         0.126258     -0.059899      0.105758
