13
# total energy = -29.96460304 eVAu     11.17633     16.82874     12.05515        -0.005925     -0.031132      0.017457
Au     14.00691     16.45796     12.15105         0.003438      0.020758      0.008055
Au     16.78560     15.81111     12.29044        -0.007770     -0.031203      0.016467
Au     12.23731     14.30403     12.41032        -0.001044      0.002110     -0.011949
Au     14.88107     13.82430     12.52104         0.002916      0.001565     -0.012240
Au     15.48446     17.33686     14.32409        -0.012617      0.010985     -0.014595
Au     14.21849     18.63769     16.52931        -0.005137     -0.032096      0.016310
Au     12.35404     16.60727     16.69557        -0.005893      0.010417      0.002056
Au     15.23238     16.08476     16.81591         0.009712      0.009200      0.003467
Au     10.92003     15.75473     14.58649        -0.007961      0.008945     -0.001218
Au     12.75987     17.83062     14.21021         0.016606      0.006520     -0.013239
Au     13.58666     14.77450     14.88398         0.003033      0.017130     -0.009912
Au     16.44215     14.75251     14.81779         0.010642      0.006800     -0.000659
