13
# total energy = -26.58176567 eVAu     13.73572     18.03068     14.61241         0.115365      0.235788     -0.038010
Au     17.94829     15.92410     14.61403         0.456349     -0.016737     -0.079486
Au     14.03020     13.31604     14.61388        -0.204960     -0.002161     -0.034394
Au     13.94851     10.77105     14.22425         0.141813      0.136799      0.056365
Au     11.57159     19.37897     14.22855         0.066308     -0.203986      0.058861
Au     20.22765     17.14130     14.21791        -0.445336     -0.081374      0.100318
Au     16.75088     13.48705     14.65541        -0.115365     -0.235788      0.038010
Au     12.53828     15.59363     14.65379        -0.456349      0.016737      0.079486
Au     16.45637     18.20169     14.65394         0.204960      0.002161      0.034394
Au     16.53809     20.74668     15.04357        -0.141813     -0.136799     -0.056365
Au     18.91501     12.13876     15.03927        -0.066308      0.203986     -0.058861
Au     10.25895     14.37643     15.04991         0.445336      0.081374     -0.100318
Au     15.24330     15.75888     14.63391         0.000000     -0.000000      0.000000
