13
# total energy = -28.21679197 eVAu     15.97708     14.87288     12.20998        -0.170584      0.215855     -0.043265
Au     12.32726     16.44334     12.20998         0.170584     -0.215855     -0.043265
Au     14.93740     17.48302     12.20998        -0.215855     -0.170584     -0.043265
Au     13.36694     13.83320     12.20998         0.215855      0.170584     -0.043265
Au     15.97708     16.44334     16.99499        -0.170584     -0.215855      0.043265
Au     13.36694     17.48302     16.99499         0.215855     -0.170584      0.043265
Au     14.93740     13.83320     16.99499        -0.215855      0.170584      0.043265
Au     12.32726     14.87288     16.99499         0.170584      0.215855      0.043265
Au     14.15217     15.65811     14.60247         0.000000      0.000000     -0.000000
Au     12.23688     17.57340     14.60247        -0.009632      0.009632     -0.000000
Au     16.06746     13.74282     14.60247         0.009632     -0.009632     -0.000000
Au     12.23688     13.74282     14.60247        -0.009632     -0.009632     -0.000000
Au     16.06746     17.57340     14.60247         0.009632      0.009632     -0.000000
