13
# total energy = -25.36476086 eVAu     14.68680     16.09098      9.80892         0.000000     -0.000000     -0.002633
Au     13.63845     14.07174     11.25937         0.001972      0.003886     -0.037036
Au     15.73515     18.11025     11.25937        -0.001972     -0.003886     -0.037036
Au     16.70607     15.04263     11.25937        -0.003886      0.001972     -0.037036
Au     12.66753     17.13936     11.25937         0.003886     -0.001972     -0.037036
Au     14.68680     16.09098     12.74413         0.000000      0.000000     -0.020091
Au     14.68680     16.09098     20.82708         0.000000      0.000000      0.002633
Au     13.63845     14.07174     19.37663         0.001972      0.003886      0.037036
Au     16.70607     15.04263     19.37663        -0.003886      0.001972      0.037036
Au     15.73515     18.11025     19.37663        -0.001972     -0.003886      0.037036
Au     12.66753     17.13936     19.37663         0.003886     -0.001972      0.037036
Au     14.68680     16.09098     17.89187         0.000000     -0.000000      0.020091
Au     14.68680     16.09098     15.31800         0.000000      0.000000      0.000000
