13
# total energy = -30.01842843 eVAu     13.04843     16.42674     12.03636        -0.025903      0.025406      0.059934
Au     14.84890     17.46719     14.02024         0.004198      0.019539     -0.008127
Au     11.06731     15.21784     13.59152         0.016471     -0.021748     -0.000438
Au     17.49149     16.34958     14.06339        -0.005027      0.010793     -0.005251
Au     12.01688     17.65325     14.44337         0.008557      0.004899     -0.005096
Au     13.49099     13.95915     13.30634         0.019351     -0.023804     -0.049145
Au     15.60998     15.49408     12.25112         0.011922     -0.003372      0.027956
Au     12.98746     15.33900     15.67289        -0.002858      0.026241      0.015723
Au     16.51943     17.86628     16.32505         0.019011     -0.039194     -0.051169
Au     13.79381     17.99518     16.51233        -0.013585     -0.020034     -0.016222
Au     17.74703     15.37419     16.62031        -0.019170     -0.009145      0.017120
Au     15.12762     15.66807     17.38765        -0.019101      0.032596      0.048420
Au     15.66034     14.43330     14.94955         0.006132     -0.002177     -0.033705
