13
# total energy = -26.54687158 eVAu     15.90730     14.77555     11.72092        -0.638785      0.143274      0.693606
Au     12.39704     16.54067     11.72092         0.638785     -0.143274      0.693606
Au     15.03473     17.41324     11.72092        -0.143274     -0.638785      0.693606
Au     13.26961     13.90298     11.72092         0.143274      0.638785      0.693606
Au     15.90730     16.54067     17.48405        -0.638785     -0.143274     -0.693606
Au     13.26961     17.41324     17.48405         0.143274     -0.638785     -0.693606
Au     15.03473     13.90298     17.48405        -0.143274      0.638785     -0.693606
Au     12.39704     14.77555     17.48405         0.638785      0.143274     -0.693606
Au     14.15217     15.65811     14.60247         0.000000      0.000000     -0.000000
Au     12.32079     17.48949     14.60247         0.103980     -0.103980     -0.000000
Au     15.98355     13.82673     14.60247        -0.103980      0.103980     -0.000000
Au     12.32079     13.82673     14.60247         0.103980      0.103980      0.000000
Au     15.98355     17.48949     14.60247        -0.103980     -0.103980      0.000000
