13
# total energy = -29.68802070 eVAu     15.02171     16.20999     14.46053         0.145747      0.256454     -0.493481
Au     12.52516     16.97260     13.14943         0.115054      0.047769     -0.035679
Au     14.22118     15.20742     11.83391         0.044763      0.074146      0.108607
Au     14.23670     13.55865     14.01956         0.073129     -0.096949      0.015899
Au     16.70193     14.46647     12.91700        -0.193490      0.040580     -0.007874
Au     16.06322     17.79189     16.45728        -0.206558      0.212874      0.165600
Au     14.02066     16.43705     17.71951        -0.055152      0.068601      0.057900
Au     16.54248     15.26456     17.65384         0.065920     -0.105801      0.025353
Au     12.53742     15.35071     15.32116        -0.142861     -0.065407      0.209440
Au     17.72400     16.08294     15.17839         0.085323     -0.197708     -0.121296
Au     13.22927     18.07983     15.65009         0.002666     -0.166203     -0.026064
Au     14.32650     13.81626     16.79109         0.063176      0.009530     -0.077633
Au     16.81250     13.51256     15.46928         0.002283     -0.077885      0.179227
