13
# total energy = -28.46996811 eVAu     14.55522     17.08718     11.85762         0.298114      0.092244     -0.348115
Au     15.74831     19.45630     13.74548        -0.024173      0.050045     -0.172050
Au     17.49098     17.32291     12.98445        -0.135495      0.066172     -0.031708
Au     12.91756     17.98080     13.79579        -0.133277      0.243011      0.122745
Au     13.31223     15.20352     13.34116        -0.156080     -0.173231     -0.017231
Au     16.17330     14.90288     12.93917         0.071429     -0.036664      0.107879
Au     15.30162     16.78353     14.73264        -0.100686     -0.204464      0.140501
Au     17.34606     18.55963     15.67553         0.116779      0.331537     -0.082925
Au     14.53416     18.58683     16.58361         0.089318      0.135718      0.070448
Au     16.60151     16.76096     17.47902         0.094012     -0.036286      0.320056
Au     12.88055     16.50013     16.08831        -0.159908     -0.244919      0.042451
Au     14.60442     14.01722     15.32696        -0.173381     -0.057617     -0.088488
Au     17.81353     15.73545     15.23923         0.213348     -0.165545     -0.063565
