13
# total energy = -28.07037323 eVAu     14.23746     15.48301     11.81702         0.012643      0.010484      0.004917
Au     11.97509     16.14546     13.54618         0.003355     -0.011467     -0.019333
Au     15.89351     13.57493     13.29597        -0.034526      0.003940      0.000010
Au     14.20610     18.00148     13.20196        -0.024723      0.034856      0.008397
Au     13.03104     13.45215     13.66509        -0.001867     -0.023747      0.017898
Au     16.71589     16.35392     13.06382         0.008278     -0.015308      0.005151
Au     17.03260     15.09108     15.63266        -0.003355      0.011467      0.019333
Au     13.11415     17.66170     15.88281         0.034526     -0.003940     -0.000010
Au     14.77014     15.75362     17.36191        -0.012643     -0.010484     -0.004917
Au     14.50386     15.61830     14.58942         0.000000      0.000000      0.000000
Au     14.80162     13.23512     15.97691         0.024723     -0.034856     -0.008397
Au     15.97677     17.78442     15.51375         0.001867      0.023747     -0.017898
Au     12.29180     14.88265     16.11499        -0.008278      0.015308     -0.005151
