13
# total energy = -30.36620451 eVAu     13.06081     15.65630     12.16919         0.000825      0.020389      0.002151
Au     15.66616     16.75021     13.03004        -0.016613      0.033381      0.022895
Au     11.54879     15.12744     14.37950         0.002189      0.008291      0.041610
Au     14.34573     14.20300     14.09123         0.002704     -0.075143      0.012760
Au     17.09906     14.38773     13.52626        -0.022664      0.034091     -0.024244
Au     15.41905     14.55334     11.35223         0.045494     -0.000717      0.014460
Au     16.03925     14.84105     16.13510         0.029171      0.045439      0.022908
Au     15.99639     17.75188     15.52625        -0.063399     -0.066473     -0.070731
Au     14.77748     16.74597     17.85936        -0.036841     -0.020480      0.026047
Au     17.50803     16.70284     17.65760         0.018692     -0.005330      0.023362
Au     18.32028     16.21884     15.08754         0.024526     -0.030707     -0.025729
Au     13.49854     17.07269     14.72460         0.031642      0.027256     -0.018309
Au     13.22182     14.96649     16.55833        -0.015726      0.030003     -0.027180
