13
# total energy = -28.46446698 eVAu     14.56864     17.09016     11.85231         0.191760      0.075642     -0.231102
Au     15.73306     19.47373     13.74858         0.014257     -0.031290     -0.146774
Au     17.49842     17.30872     12.98657        -0.127672      0.149415     -0.030788
Au     12.90655     17.98610     13.79877        -0.050145      0.177038      0.068551
Au     13.31536     15.20563     13.35658        -0.112392     -0.129240     -0.048186
Au     16.17721     14.90877     12.92700         0.038134     -0.087101      0.107752
Au     15.29946     16.78494     14.72415        -0.069695     -0.124574      0.156988
Au     17.34432     18.55611     15.66200         0.068222      0.229830     -0.023385
Au     14.53586     18.59934     16.58378         0.092287      0.086677      0.021707
Au     16.56755     16.74219     17.47128         0.146284      0.027118      0.220362
Au     12.89412     16.49847     16.09532        -0.169026     -0.218839      0.046915
Au     14.62523     14.02367     15.34153        -0.179274     -0.043702     -0.109866
Au     17.81369     15.71952     15.24111         0.157261     -0.110974     -0.032173
