13
# total energy = -29.96459812 eVAu     11.17649     16.82880     12.05520        -0.004276     -0.030516      0.017992
Au     14.00691     16.45797     12.15103         0.003349      0.020465      0.008054
Au     16.78547     15.81122     12.29048        -0.008993     -0.030046      0.016835
Au     12.23723     14.30399     12.41026        -0.001724      0.001981     -0.012335
Au     14.88113     13.82424     12.52099         0.003396      0.001124     -0.012547
Au     15.48447     17.33688     14.32409        -0.012552      0.010768     -0.014407
Au     14.21850     18.63767     16.52913        -0.005157     -0.032289      0.014608
Au     12.35401     16.60731     16.69567        -0.005974      0.010600      0.002652
Au     15.23241     16.08479     16.81601         0.009951      0.009481      0.004133
Au     10.91993     15.75472     14.58647        -0.008549      0.008842     -0.001397
Au     12.75987     17.83064     14.21021         0.016485      0.006334     -0.013088
Au     13.58664     14.77439     14.88404         0.002920      0.016772     -0.009732
Au     16.44225     14.75246     14.81778         0.011125      0.006485     -0.000767
