13
# total energy = -29.98576468 eVAu     13.05303     16.40609     12.01556        -0.163376      0.158378      0.006454
Au     14.84714     17.45996     14.02381         0.013197      0.064219     -0.029847
Au     11.08100     15.24299     13.58071        -0.034436     -0.161915      0.034050
Au     17.51115     16.34793     14.07842        -0.166107      0.001778     -0.163884
Au     11.99624     17.64769     14.43279         0.177594      0.065575      0.119880
Au     13.49771     13.96961     13.29392        -0.194135     -0.112252      0.095661
Au     15.57800     15.49496     12.27402         0.389839      0.010314     -0.115648
Au     12.98097     15.35165     15.72709        -0.070933     -0.095139     -0.288680
Au     16.51192     17.87232     16.35214         0.196917      0.034748     -0.099501
Au     13.82032     17.96777     16.50319        -0.337059      0.214694     -0.000164
Au     17.74327     15.40084     16.60517        -0.015343     -0.132102      0.118364
Au     15.12724     15.68593     17.38629         0.122843     -0.195688      0.058976
Au     15.66169     14.39611     14.90700         0.080998      0.147389      0.264339
