13
# total energy = -30.01872187 eVAu     13.03982     16.43535     12.06493         0.012757      0.025632     -0.012314
Au     14.85473     17.49528     14.00676         0.004899      0.016349     -0.011541
Au     11.06474     15.20092     13.59199         0.045238     -0.031829      0.024001
Au     17.48825     16.34880     14.06745         0.046064      0.001376     -0.010243
Au     12.01883     17.64769     14.44191        -0.039308      0.033348      0.002076
Au     13.50101     13.95068     13.29207        -0.030010     -0.005635     -0.000891
Au     15.60737     15.49973     12.25574         0.000689      0.002000      0.001359
Au     12.99020     15.34379     15.66706         0.008627     -0.026300     -0.000615
Au     16.52473     17.84650     16.30288         0.006489      0.022042     -0.013642
Au     13.79799     17.99402     16.50548        -0.007913      0.000687     -0.001093
Au     17.74488     15.36296     16.63405        -0.067637     -0.017339     -0.006346
Au     15.11755     15.67791     17.40210         0.027476     -0.015355      0.000117
Au     15.65958     14.44024     14.94771        -0.007373     -0.004975      0.029131
