13
# total energy = -29.91553850 eVAu     15.11204     16.58492     14.03684        -0.018580      0.011181     -0.102212
Au     12.52525     16.98940     13.13047         0.005663      0.001860      0.008118
Au     14.20922     15.22723     11.78825         0.052731     -0.039233      0.096285
Au     14.27992     13.62110     14.09260        -0.025172      0.032502     -0.127119
Au     16.62022     14.37679     12.93969         0.073092      0.128081      0.061452
Au     15.96626     17.70163     16.45164        -0.147210     -0.020904     -0.025499
Au     14.02285     16.43055     17.82580        -0.061758     -0.079493      0.100215
Au     16.55654     15.16712     17.79154         0.059756      0.134585     -0.061321
Au     12.60570     15.34959     15.38024        -0.002518     -0.052835     -0.007735
Au     17.61383     16.01320     15.14997        -0.063386     -0.044970     -0.106297
Au     13.17401     17.98240     15.66020         0.151045      0.106015      0.030233
Au     14.39153     13.84435     16.79465        -0.012444      0.010653      0.101808
Au     16.88538     13.46264     15.57919        -0.011219     -0.187440      0.032072
