13
# total energy = -26.37850692 eVAu     14.99415     16.28880     12.58584         0.285014      0.601964     -1.818214
Au     12.58824     15.11208     13.38462        -1.468263     -0.256566     -1.236348
Au     14.91642     13.57263     13.23969         0.226867     -1.377410     -1.342558
Au     13.28652     17.64684     14.33253        -0.959832      1.592138     -0.546246
Au     16.04625     17.67396     14.77347         1.051553      1.611978     -0.224905
Au     17.05356     15.15597     14.09805         1.786140     -0.223603     -0.717060
Au     16.61871     15.81387     16.77933         1.468263      0.256566      1.236348
Au     14.29053     17.35329     16.92426        -0.226867      1.377410      1.342558
Au     14.21277     14.63712     17.57808        -0.285014     -0.601964      1.818214
Au     14.60346     15.46296     15.08196        -0.000000      0.000000      0.000000
Au     15.92043     13.27911     15.83139         0.959832     -1.592138      0.546246
Au     13.16070     13.25196     15.39048        -1.051553     -1.611978      0.224905
Au     12.15339     15.76995     16.06590        -1.786140      0.223603      0.717060
