13
# total energy = -29.60508158 eVAu     14.69809     17.40482     11.67345        -0.020485     -0.108377      0.071259
Au     15.81433     19.69943     13.04265         0.021223     -0.159029      0.023741
Au     16.96244     17.10326     13.29936        -0.160120      0.045797     -0.071817
Au     13.76581     18.02274     14.18104         0.250609      0.226100     -0.114237
Au     13.13749     15.61625     12.91784        -0.136889     -0.001496     -0.114628
Au     15.76224     14.70176     13.25137         0.014603      0.075817      0.177933
Au     15.60889     15.84143     15.80497         0.185738     -0.125933     -0.314257
Au     16.88258     18.98085     15.35585        -0.021500      0.130677     -0.132005
Au     14.57254     18.16014     16.79929         0.011886     -0.067806      0.170426
Au     17.28390     17.62319     17.55089        -0.069578     -0.041657      0.251705
Au     12.90830     16.04628     15.81533        -0.084803      0.057506      0.056239
Au     13.61985     13.62710     14.66425        -0.043316     -0.145747     -0.004828
Au     18.26299     16.07009     15.43269         0.052630      0.114148      0.000470
