13
# total energy = -28.27430454 eVAu     14.64591     17.11567     11.83047        -0.126328     -0.087699      0.260655
Au     15.63984     19.55704     13.76784         0.068017     -0.210254     -0.046144
Au     17.55184     17.27993     12.99472        -0.174561      0.016123      0.072018
Au     12.85969     18.01968     13.80743         0.184995     -0.161423     -0.031658
Au     13.34086     15.22142     13.44819         0.083873      0.122799     -0.147284
Au     16.18732     14.89500     12.85153        -0.090595      0.154872      0.198773
Au     15.29068     16.82183     14.69683         0.061516     -0.183594     -0.177757
Au     17.31306     18.51967     15.57987         0.089683     -0.025744      0.156450
Au     14.56869     18.68020     16.56527        -0.065584     -0.051096      0.014603
Au     16.37109     16.63608     17.40099         0.278712      0.142968      0.013785
Au     12.95834     16.46000     16.15523        -0.069996      0.051114     -0.093839
Au     14.74294     14.07416     15.41795        -0.148604      0.021188     -0.142432
Au     17.80922     15.61666     15.27266        -0.091129      0.210744     -0.077168
