13
# total energy = -29.93864344 eVAu     15.14093     16.62877     13.99243        -0.232569      0.039932     -0.181737
Au     12.53088     16.99163     13.13921         0.009154     -0.009151     -0.003203
Au     14.21515     15.22806     11.79764         0.018735     -0.021252      0.015802
Au     14.28291     13.62528     14.08674        -0.040015      0.004957     -0.004293
Au     16.62034     14.39469     12.96153         0.142628      0.044070     -0.023411
Au     15.94301     17.67817     16.42680        -0.266097      0.088545      0.183767
Au     14.01034     16.40572     17.85998        -0.025069      0.037207     -0.005309
Au     16.56621     15.18186     17.78681         0.069006      0.091690     -0.060812
Au     12.61156     15.33971     15.38755         0.002894      0.051113     -0.010246
Au     17.56785     16.01166     15.12979         0.177463     -0.245988     -0.056087
Au     13.19420     17.98582     15.65089         0.129069      0.007295      0.096400
Au     14.39773     13.85255     16.80449         0.012095     -0.023583      0.017191
Au     16.88163     13.42700     15.59722         0.002707     -0.064836      0.031939
