13
# total energy = -28.07034285 eVAu     14.23746     15.48301     11.81701         0.012659      0.010493      0.004864
Au     11.97508     16.14546     13.54617         0.003284     -0.011467     -0.019373
Au     15.89352     13.57493     13.29597        -0.034517      0.003862     -0.000057
Au     14.20610     18.00148     13.20196        -0.024735      0.034935      0.008365
Au     13.03103     13.45214     13.66509        -0.001874     -0.023798      0.017885
Au     16.71590     16.35392     13.06381         0.008368     -0.015300      0.005092
Au     17.03261     15.09108     15.63267        -0.003284      0.011467      0.019373
Au     13.11414     17.66170     15.88281         0.034517     -0.003862      0.000057
Au     14.77014     15.75362     17.36192        -0.012659     -0.010493     -0.004864
Au     14.50386     15.61830     14.58942         0.000000      0.000000      0.000000
Au     14.80162     13.23512     15.97691         0.024735     -0.034935     -0.008365
Au     15.97678     17.78443     15.51375         0.001874      0.023798     -0.017885
Au     12.29179     14.88265     16.11500        -0.008368      0.015300     -0.005092
