13
# total energy = -25.04975250 eVAu     14.68680     16.09098      9.90156         0.000000     -0.000000      0.506207
Au     13.58237     13.96360     11.23048         0.304597      0.586974      0.034592
Au     15.79123     18.21839     11.23048        -0.304597     -0.586974      0.034592
Au     16.81421     14.98655     11.23048        -0.586974      0.304597      0.034592
Au     12.55939     17.19544     11.23048         0.586974     -0.304597      0.034592
Au     14.68680     16.09098     12.74114         0.000000     -0.000000     -0.772157
Au     14.68680     16.09098     20.73444         0.000000     -0.000000     -0.506207
Au     13.58237     13.96360     19.40552         0.304597      0.586974     -0.034592
Au     16.81421     14.98655     19.40552        -0.586974      0.304597     -0.034592
Au     15.79123     18.21839     19.40552        -0.304597     -0.586974     -0.034592
Au     12.55939     17.19544     19.40552         0.586974     -0.304597     -0.034592
Au     14.68680     16.09098     17.89486         0.000000     -0.000000      0.772157
Au     14.68680     16.09098     15.31800         0.000000     -0.000000      0.000000
