13
# total energy = -28.51167441 eVAu     14.43861     15.74401     11.84361         0.040921      0.277436     -0.119900
Au     12.05293     15.94988     13.24389         0.213759     -0.043109      0.118444
Au     15.52177     13.51419     13.19077         0.230806     -0.065451     -0.281412
Au     13.79278     18.42628     13.35678         0.044577     -0.599979      0.126232
Au     12.92033     13.12743     14.04416        -0.006146      0.445659      0.485679
Au     16.85825     16.08639     13.18795         0.013710     -0.002036      0.269582
Au     16.95476     15.28666     15.93495        -0.213759      0.043109     -0.118444
Au     13.48589     17.72244     15.98801        -0.230806      0.065451      0.281412
Au     14.56899     15.49262     17.33532        -0.040921     -0.277436      0.119900
Au     14.50386     15.61830     14.58942        -0.000000     -0.000000      0.000000
Au     15.21494     12.81032     15.82209        -0.044577      0.599979     -0.126232
Au     16.08748     18.10914     15.13468         0.006146     -0.445659     -0.485679
Au     12.14944     15.15018     15.99086        -0.013710      0.002036     -0.269582
