13
# total energy = -30.14651084 eVAu     11.92954     16.07528     12.92522         0.003429     -0.007486     -0.004483
Au     16.43175     17.04541     13.30913        -0.017367     -0.013770     -0.009895
Au     13.83416     17.69115     14.04252         0.011216      0.005686      0.001583
Au     12.44427     13.36748     13.38124         0.007965      0.003675      0.004457
Au     16.93763     14.43724     14.13020        -0.016199     -0.000403     -0.005126
Au     14.57219     15.05005     12.77926         0.009761      0.002205     -0.000569
Au     15.62929     15.17526     16.49932        -0.001254     -0.001128      0.004274
Au     16.04491     18.75566     15.37783        -0.004591     -0.001422     -0.001304
Au     14.00629     17.38825     16.84445         0.000763     -0.008481      0.004410
Au     16.58302     17.53515     17.81778         0.002970     -0.002354      0.004694
Au     13.00791     15.29726     15.37558        -0.005219      0.015726      0.001878
Au     17.94633     16.48377     15.67533         0.009543      0.012651      0.009295
Au     14.64823     13.06309     14.92592        -0.001017     -0.004898     -0.009213
