13
# total energy = -27.91379558 eVAu     15.78616     14.74424     12.06800         0.504831     -0.246903     -0.068444
Au     12.51818     16.57198     12.06800        -0.504831      0.246903     -0.068444
Au     15.06604     17.29210     12.06800         0.246903      0.504831     -0.068444
Au     13.23830     14.02412     12.06800        -0.246903     -0.504831     -0.068444
Au     15.78616     16.57198     17.13697         0.504831      0.246903      0.068444
Au     13.23830     17.29210     17.13697        -0.246903      0.504831      0.068444
Au     15.06604     14.02412     17.13697         0.246903     -0.504831      0.068444
Au     12.51818     14.74424     17.13697        -0.504831     -0.246903      0.068444
Au     14.15217     15.65811     14.60247        -0.000000      0.000000     -0.000000
Au     12.31950     17.49078     14.60247        -0.335935      0.335935     -0.000000
Au     15.98484     13.82544     14.60247         0.335935     -0.335935     -0.000000
Au     12.31950     13.82544     14.60247        -0.335935     -0.335935     -0.000000
Au     15.98484     17.49078     14.60247         0.335935      0.335935     -0.000000
