13
# total energy = -27.90027045 eVAu     14.36361     15.58719     11.86899        -0.129730      0.659806     -0.491218
Au     12.01060     16.03109     13.35707         0.133854     -0.016121      0.005856
Au     15.55049     13.61653     13.29694         1.433028     -0.991543     -0.734740
Au     13.96252     18.34210     13.28641        -0.169632     -0.502518      0.017819
Au     13.01534     13.22043     13.84290        -0.893039      0.078929      0.642122
Au     16.79503     16.20075     13.11640         0.095599     -0.060724      0.333327
Au     16.99709     15.20545     15.82177        -0.133854      0.016121     -0.005856
Au     13.45717     17.62010     15.88184        -1.433028      0.991543      0.734740
Au     14.64399     15.64944     17.30994         0.129730     -0.659806      0.491218
Au     14.50386     15.61830     14.58942        -0.000000      0.000000      0.000000
Au     15.04520     12.89450     15.89246         0.169632      0.502518     -0.017819
Au     15.99247     18.01614     15.33594         0.893039     -0.078929     -0.642122
Au     12.21266     15.03582     16.06241        -0.095599      0.060724     -0.333327
