13
# total energy = -30.14697319 eVAu     11.92829     16.07259     12.92677         0.002105      0.009538     -0.010471
Au     16.43579     17.04180     13.31384         0.001367      0.016037      0.005337
Au     13.83933     17.69467     14.03502        -0.004421     -0.007828      0.013416
Au     12.44596     13.36859     13.38906        -0.025333     -0.008974     -0.012112
Au     16.94215     14.43131     14.12230         0.005072      0.014304      0.021251
Au     14.57152     15.05651     12.79444        -0.007642     -0.013599     -0.031777
Au     15.62794     15.16790     16.48959         0.001783      0.021678      0.014881
Au     16.04353     18.76400     15.37621         0.001370     -0.017759     -0.000543
Au     14.01201     17.38232     16.83841        -0.008461      0.004192      0.006533
Au     16.58023     17.53943     17.81975         0.002935     -0.006525     -0.009891
Au     12.99567     15.30028     15.37974         0.025417     -0.004118      0.006155
Au     17.94233     16.48667     15.67902         0.001723     -0.007553     -0.007726
Au     14.65077     13.05896     14.91966         0.004084      0.000607      0.004947
