13
# total energy = -28.13224946 eVAu     15.88886     14.78553     12.14720         0.015798      0.089675     -0.039501
Au     12.41548     16.53069     12.14720        -0.015798     -0.089675     -0.039501
Au     15.02475     17.39480     12.14720        -0.089675      0.015798     -0.039501
Au     13.27959     13.92142     12.14720         0.089675     -0.015798     -0.039501
Au     15.88886     16.53069     17.05777         0.015798     -0.089675      0.039501
Au     13.27959     17.39480     17.05777         0.089675      0.015798      0.039501
Au     15.02475     13.92142     17.05777        -0.089675     -0.015798      0.039501
Au     12.41548     14.78553     17.05777        -0.015798      0.089675      0.039501
Au     14.15217     15.65811     14.60247         0.000000     -0.000000      0.000000
Au     12.25453     17.55575     14.60247        -0.002815      0.002815      0.000000
Au     16.04981     13.76047     14.60247         0.002815     -0.002815      0.000000
Au     12.25453     13.76047     14.60247        -0.002815     -0.002815      0.000000
Au     16.04981     17.55575     14.60247         0.002815      0.002815      0.000000
