13
# total energy = -26.91856096 eVAu     17.47656     17.08915     13.87280        -0.536539     -0.372328      0.308474
Au     11.57370     15.01301     13.87280         0.536539      0.372328      0.308474
Au     15.43618     19.00251     13.74578        -0.308474     -0.536539      0.372328
Au     13.61408     13.09965     13.74578         0.308474      0.536539      0.372328
Au     15.56320     16.96213     11.83239        -0.372328     -0.308474      0.536539
Au     13.48706     15.14003     11.83239         0.372328      0.308474      0.536539
Au     11.57370     17.08915     15.69487         0.536539     -0.372328     -0.308474
Au     17.47656     15.01301     15.69487        -0.536539      0.372328     -0.308474
Au     15.43618     13.09965     15.82192        -0.308474      0.536539     -0.372328
Au     13.61408     19.00251     15.82192         0.308474     -0.536539     -0.372328
Au     13.48706     16.96213     17.73528         0.372328     -0.308474     -0.536539
Au     15.56320     15.14003     17.73528        -0.372328      0.308474     -0.536539
Au     14.52513     16.05108     14.78385        -0.000000      0.000000     -0.000000
