13
# total energy = -28.24298632 eVAu     14.33312     15.57582     11.84822         0.063666      0.455169     -0.198784
Au     12.00510     16.05679     13.40270         0.120388     -0.098300     -0.084627
Au     15.65897     13.58795     13.28112         0.527332     -0.457031     -0.433671
Au     14.01779     18.24238     13.26896        -0.193790     -0.368044      0.116679
Au     13.00671     13.28306     13.81381        -0.345267      0.113860      0.521437
Au     16.77827     16.23436     13.10953         0.087261     -0.139239      0.211107
Au     17.00259     15.17975     15.77614        -0.120388      0.098300      0.084627
Au     13.34869     17.64868     15.89766        -0.527332      0.457031      0.433671
Au     14.67448     15.66081     17.33071        -0.063666     -0.455169      0.198784
Au     14.50386     15.61830     14.58942         0.000000      0.000000      0.000000
Au     14.98993     12.99422     15.90991         0.193790      0.368044     -0.116679
Au     16.00110     17.95351     15.36503         0.345267     -0.113860     -0.521437
Au     12.22942     15.00221     16.06928        -0.087261      0.139239     -0.211107
