13
# total energy = -29.06780783 eVAu     14.56684     15.95687     11.77822         0.002695      0.052466     -0.000532
Au     12.10753     15.81923     13.20353        -0.033971     -0.042240     -0.011693
Au     15.48104     13.57496     12.98061        -0.018813     -0.065025      0.019473
Au     13.70373     18.13176     13.38332        -0.012882      0.006294      0.041762
Au     12.93740     13.30030     14.25189        -0.005979     -0.014811      0.016009
Au     17.02820     15.92733     13.17836         0.006128     -0.016952      0.035107
Au     16.90016     15.41731     15.97531         0.033971      0.042240      0.011693
Au     13.52662     17.66167     16.19817         0.018813      0.065025     -0.019473
Au     14.44076     15.27976     17.40071        -0.002695     -0.052466      0.000532
Au     14.50386     15.61830     14.58942         0.000000      0.000000      0.000000
Au     15.30399     13.10484     15.79555         0.012882     -0.006294     -0.041762
Au     16.07041     17.93627     14.92695         0.005979      0.014811     -0.016009
Au     11.97949     15.30924     16.00045        -0.006128      0.016952     -0.035107
