13
# total energy = -28.07964169 eVAu     15.84180     14.71037     12.08488        -0.025161      0.061358      0.022274
Au     12.46254     16.60585     12.08488         0.025161     -0.061358      0.022274
Au     15.09991     17.34774     12.08488        -0.061358     -0.025161      0.022274
Au     13.20443     13.96848     12.08488         0.061358      0.025161      0.022274
Au     15.84180     16.60585     17.12009        -0.025161     -0.061358     -0.022274
Au     13.20443     17.34774     17.12009         0.061358     -0.025161     -0.022274
Au     15.09991     13.96848     17.12009        -0.061358      0.025161     -0.022274
Au     12.46254     14.71037     17.12009         0.025161      0.061358     -0.022274
Au     14.15217     15.65811     14.60247         0.000000      0.000000      0.000000
Au     12.28357     17.52671     14.60247        -0.066640      0.066640     -0.000000
Au     16.02077     13.78951     14.60247         0.066640     -0.066640      0.000000
Au     12.28357     13.78951     14.60247        -0.066640     -0.066640      0.000000
Au     16.02077     17.52671     14.60247         0.066640      0.066640      0.000000
