13
# total energy = -24.62009069 eVAu     15.49359     14.03585     13.70191        -0.484774      0.605594      0.540799
Au     14.87730     18.61321     13.70191         0.484774     -0.605594      0.540799
Au     17.38202     16.01640     13.60982        -0.540799      0.484774      0.605594
Au     12.98884     16.63266     13.60982         0.540799     -0.484774      0.605594
Au     12.89675     18.52112     15.59037         0.605594     -0.540799      0.484774
Au     17.47411     14.12794     15.59037        -0.605594      0.540799      0.484774
Au     14.87730     14.03585     18.09509         0.484774      0.605594     -0.540799
Au     15.49359     18.61321     18.09509        -0.484774     -0.605594     -0.540799
Au     17.38202     16.63266     18.18718        -0.540799     -0.484774     -0.605594
Au     12.98884     16.01640     18.18718         0.540799      0.484774     -0.605594
Au     17.47411     18.52112     16.20663        -0.605594     -0.540799     -0.484774
Au     12.89675     14.12794     16.20663         0.605594      0.540799     -0.484774
Au     15.18543     16.32453     15.89850        -0.000000      0.000000      0.000000
