13
# total energy = -28.85719150 eVAu     15.04548     16.02447     14.68571        -0.193728      0.221676     -0.114140
Au     12.67291     16.96243     13.21690        -0.735282      0.243042     -0.416908
Au     14.22721     15.26848     11.98426         0.411082     -0.392030     -0.590017
Au     14.21163     13.41859     13.94271        -0.137427     -0.084257      0.273348
Au     16.72025     14.59039     13.07896        -0.017756      0.438195     -2.953119
Au     16.00710     17.90700     16.49468         0.222787      0.409295     -0.163526
Au     14.03705     16.39280     17.64735        -0.820526      0.541200      0.301906
Au     16.49319     15.41903     17.51923         0.838687     -0.779910     -0.027893
Au     12.41031     15.31866     15.39244        -0.095993      0.010556     -0.109423
Au     17.79954     16.05118     15.06739         0.364309      0.529477      0.682191
Au     13.34242     18.02557     15.52867        -0.058267      0.512475      0.735508
Au     14.24923     13.85475     16.76055         0.365172     -0.600659     -0.151135
Au     16.74644     13.51758     15.30223        -0.143057     -1.049059      2.533208
