13
# total energy = 983.01740652 eVAu     14.97057     14.41145     13.18788         0.000000     -9.455637    -16.258065
Au     14.97057     17.92039     13.18788         0.000000      9.455637    -16.258065
Au     12.72039     16.16592     13.68359       -16.258065      0.000000     -9.455637
Au     17.22075     16.16592     13.68359        16.258065      0.000000     -9.455637
Au     14.97057     16.16592     15.43806         0.000000      0.000000      0.000000
Au     14.97057     14.41145     17.68824        -0.000000     -9.455637     16.258065
Au     14.97057     17.92039     17.68824         0.000000      9.455637     16.258065
Au     12.72039     16.16592     17.19253       -16.258065      0.000000      9.455637
Au     17.22075     16.16592     17.19253        16.258065      0.000000      9.455637
Au     13.21610     13.91574     15.43806        -9.455637    -16.258065      0.000000
Au     16.72504     13.91574     15.43806         9.455637    -16.258065      0.000000
Au     13.21610     18.41610     15.43806        -9.455637     16.258065      0.000000
Au     16.72504     18.41610     15.43806         9.455637     16.258065     -0.000000
