13
# total energy = 2247.19083995 eVAu     14.97057     14.98400     12.46439        -0.000000    -26.752464      5.599351
Au     14.97057     17.34784     12.46439        -0.000000     26.752464      5.599351
Au     11.99690     16.16592     14.25614         5.599351      0.000000    -26.752464
Au     17.94424     16.16592     14.25614        -5.599351      0.000000    -26.752464
Au     14.97057     16.16592     15.43806        -0.000000      0.000000      0.000000
Au     14.97057     14.98400     18.41173        -0.000000    -26.752464     -5.599351
Au     14.97057     17.34784     18.41173        -0.000000     26.752464     -5.599351
Au     11.99690     16.16592     16.61998         5.599351      0.000000     26.752464
Au     17.94424     16.16592     16.61998        -5.599351      0.000000     26.752464
Au     13.78865     13.19225     15.43806       -26.752464      5.599351      0.000000
Au     16.15249     13.19225     15.43806        26.752464      5.599351      0.000000
Au     13.78865     19.13959     15.43806       -26.752464     -5.599351      0.000000
Au     16.15249     19.13959     15.43806        26.752464     -5.599351      0.000000
