13
# total energy = -30.33894802 eVAu     13.16699     15.85190     12.26852        -0.052556     -0.077805     -0.052599
Au     15.76161     16.70975     13.07546        -0.041620      0.033554      0.075389
Au     11.57419     15.09985     14.36087        -0.055997     -0.013833     -0.007812
Au     14.34731     14.13948     14.10533        -0.027085      0.022928     -0.042510
Au     17.08243     14.28500     13.51756         0.023133      0.017162      0.030723
Au     15.39064     14.53272     11.37691         0.002652     -0.022965     -0.054098
Au     16.04678     14.85591     16.14173        -0.044639     -0.023202     -0.054025
Au     15.99959     17.83506     15.51348        -0.016923      0.013472     -0.025184
Au     14.70468     16.76625     17.74491         0.007882      0.030618      0.094140
Au     17.48413     16.75271     17.61731         0.000366     -0.027977      0.007453
Au     18.23122     16.24118     14.98673         0.091540      0.016509      0.025984
Au     13.51407     17.04378     14.83334         0.086637      0.015901     -0.027840
Au     13.19773     14.86420     16.55507         0.026611      0.015637      0.030380
