13
# total energy = -25.37487327 eVAu     13.58905     17.82701     14.19550        -0.693718      0.737458      0.351372
Au     17.87224     16.15111     14.19516         0.882660      0.223638      0.356811
Au     14.27417     13.29482     14.20401        -0.290074     -0.972624      0.344335
Au     13.77911     10.62658     14.21100         0.214243      0.918022     -0.025857
Au     11.53262     19.59788     14.21918         0.685015     -0.647792     -0.031788
Au     20.41606     17.05468     14.21308        -0.850869     -0.254344     -0.029529
Au     16.89755     13.69072     15.07232         0.693718     -0.737458     -0.351372
Au     12.61433     15.36662     15.07266        -0.882660     -0.223638     -0.356811
Au     16.21240     18.22291     15.06381         0.290074      0.972624     -0.344335
Au     16.70749     20.89115     15.05682        -0.214243     -0.918022      0.025857
Au     18.95398     11.91985     15.04864        -0.685015      0.647792      0.031788
Au     10.07054     14.46305     15.05474         0.850869      0.254344      0.029529
Au     15.24330     15.75888     14.63391         0.000000     -0.000000      0.000000
