13
# total energy = -29.85767661 eVAu     14.35050     18.31084     14.64114        -0.469424      0.565444     -0.005944
Au     18.07105     15.24879     14.61541        -0.723651     -0.993127      0.102832
Au     13.43465     13.70968     14.63502         0.790644     -0.934792     -0.098059
Au     14.43251     11.11755     14.39718         0.023523      0.858588      0.089165
Au     11.64617     18.77778     14.39874         0.515729     -0.137397      0.064097
Au     19.54532     17.29665     14.41176         1.247978      0.638469     -0.131644
Au     16.13610     13.20689     14.62668         0.469424     -0.565444      0.005944
Au     12.41552     16.26894     14.65241         0.723651      0.993127     -0.102832
Au     17.05192     17.80805     14.63280        -0.790644      0.934792      0.098059
Au     16.05409     20.40018     14.87064        -0.023523     -0.858588     -0.089165
Au     18.84043     12.73995     14.86908        -0.515729      0.137397     -0.064097
Au     10.94128     14.22108     14.85606        -1.247978     -0.638469      0.131644
Au     15.24330     15.75888     14.63391         0.000000     -0.000000      0.000000
