13
# total energy = -23.34901801 eVAu     15.56653     13.96559     13.63849        -0.397854      0.571346      0.511579
Au     14.80436     18.68347     13.63849         0.397854     -0.571346      0.511579
Au     17.44544     15.94346     13.53956        -0.511579      0.397854      0.571346
Au     12.92542     16.70560     13.53956         0.511579     -0.397854      0.571346
Au     12.82649     18.58454     15.51743         0.571346     -0.511579      0.397854
Au     17.54437     14.06452     15.51743        -0.571346      0.511579      0.397854
Au     14.80436     13.96559     18.15851         0.397854      0.571346     -0.511579
Au     15.56653     18.68347     18.15851        -0.397854     -0.571346     -0.511579
Au     17.44544     16.70560     18.25744        -0.511579     -0.397854     -0.571346
Au     12.92542     15.94346     18.25744         0.511579      0.397854     -0.571346
Au     17.54437     18.58454     16.27957        -0.571346     -0.511579     -0.397854
Au     12.82649     14.06452     16.27957         0.571346      0.511579     -0.397854
Au     15.18543     16.32453     15.89850         0.000000      0.000000      0.000000
