13
# total energy = -30.09912556 eVAu     13.03272     14.10753     12.70351        -0.024459     -0.014945     -0.026716
Au     16.60186     16.68941     13.85729        -0.015086      0.006385      0.003569
Au     13.91263     16.82626     13.19095        -0.056415     -0.015476      0.011403
Au     15.31791     12.55057     12.13277         0.031645     -0.003350      0.006279
Au     17.55636     13.96504     13.26036         0.003627     -0.021548      0.007831
Au     15.56256     15.23306     11.77390        -0.023034      0.002534      0.032722
Au     14.97294     13.72314     14.61231        -0.021239     -0.026486     -0.043482
Au     17.24660     17.20342     16.47913         0.038310      0.020564      0.001953
Au     14.64694     17.68396     15.71043         0.035172      0.038996      0.017050
Au     17.21801     14.42950     16.02873         0.024716     -0.019320     -0.017308
Au     12.69103     15.36171     15.15792        -0.007876      0.004756     -0.037196
Au     19.09578     15.86231     14.69667        -0.015752      0.004151      0.047484
Au     14.82271     15.24297     16.92769         0.030391      0.023741     -0.003588
