13
# total energy = -29.89000341 eVAu     11.24391     16.84607     12.08440        -0.142782      0.019153     -0.099872
Au     14.00458     16.44036     12.12041         0.021917      0.144144      0.158554
Au     16.72602     15.85182     12.31461         0.146541     -0.034347     -0.086646
Au     12.23819     14.28224     12.40722        -0.093702     -0.007240      0.027749
Au     14.87323     13.80462     12.51768         0.082003     -0.039693      0.036252
Au     15.51522     17.33838     14.34168        -0.172084      0.027565     -0.123533
Au     14.21701     18.61439     16.45738         0.014872      0.111804      0.132693
Au     12.33797     16.59609     16.70526         0.055278     -0.009645      0.077414
Au     15.24267     16.06970     16.82690        -0.060838      0.008128      0.070605
Au     10.90900     15.74640     14.60250        -0.039797     -0.065711     -0.056345
Au     12.73132     17.84332     14.22501         0.179862     -0.035678     -0.109215
Au     13.59760     14.83085     14.85312        -0.005480     -0.044746      0.026304
Au     16.44861     14.74083     14.83518         0.014209     -0.073733     -0.053961
