13
# total energy = -29.92630260 eVAu     14.57422     16.69191     12.99725        -0.000670     -0.012829      0.009377
Au     11.73953     16.57521     12.79554        -0.004332     -0.001960      0.005899
Au     13.25063     14.91716     11.20740         0.002726     -0.007320     -0.000395
Au     11.02994     13.82484     12.61857        -0.018650     -0.005217     -0.010193
Au     17.18029     15.95328     13.87258        -0.002642     -0.010576     -0.005800
Au     13.56001     13.11081     13.38469         0.027480      0.003008     -0.001379
Au     15.77411     14.33620     12.14207         0.005718      0.002842     -0.000334
Au     15.66590     17.61047     15.45907        -0.007212     -0.003084      0.005070
Au     14.25674     15.35790     16.48130        -0.015539      0.011346     -0.004739
Au     16.99026     15.39414     16.65746         0.014810      0.003360      0.015566
Au     12.93909     17.44256     15.11605        -0.001134      0.008460      0.001589
Au     12.04237     14.77409     14.97999         0.005591      0.016667      0.010532
Au     15.77510     13.69450     14.88704        -0.006145     -0.004699     -0.025192
