13
# total energy = -30.14711785 eVAu     11.92811     16.07333     12.92639         0.006012      0.004125     -0.005839
Au     16.43542     17.04321     13.31344        -0.005126      0.002531     -0.004227
Au     13.83840     17.69419     14.03685        -0.005102     -0.007840      0.006313
Au     12.44528     13.36791     13.38701        -0.011051     -0.000516     -0.003738
Au     16.94224     14.43236     14.12382        -0.008818      0.011366      0.015207
Au     14.57133     15.05542     12.79126        -0.000582     -0.011802     -0.020536
Au     15.62832     15.16990     16.49166         0.000473      0.008841      0.009900
Au     16.04373     18.76193     15.37632         0.001877     -0.007890      0.002604
Au     14.01129     17.38314     16.83893        -0.010596      0.007962      0.012536
Au     16.58050     17.53850     17.81900         0.005258     -0.004304     -0.002456
Au     12.99807     15.30032     15.37956         0.018797     -0.009953     -0.004942
Au     17.94236     16.48579     15.67808         0.009986     -0.001798     -0.003360
Au     14.65049     13.05904     14.92149        -0.001129      0.009277     -0.001464
