13
# total energy = -8.71830582 eVAu     15.02034     15.96756     14.75712         0.453393      0.591943     -0.891294
Au     12.75513     16.89900     13.30800        -0.444222      0.503261     -0.754564
Au     14.32587     15.26721     12.08760        -1.798791      0.223903     -0.457236
Au     14.27568     13.47999     14.01297        -0.629916     -0.179322     -1.117932
Au     16.68492     14.64657     13.00848        -0.167608     -0.912927      3.067635
Au     15.98598     17.83938     16.42749        -0.179244     -0.046628      1.082943
Au     13.95129     16.37397     17.49501         2.329919      0.014357      1.549882
Au     16.44657     15.38853     17.36703        -0.005996      1.225263      1.665808
Au     12.47340     15.35211     15.41313        -0.147938     -0.256706     -0.480436
Au     17.68317     16.07646     15.10890         0.898398     -1.116958     -0.733539
Au     13.40799     18.05040     15.55443        -0.725719     -1.749174     -0.878808
Au     14.30346     13.83789     16.68177        -0.820950      1.411810      0.826290
Au     16.64895     13.57185     15.39915         1.238675      0.291178     -2.878749
