13
# total energy = -29.38273048 eVAu     15.66256     16.36337     14.00858        -0.036264      0.081678     -0.105878
Au     13.71597     15.41953     12.24950         0.094342     -0.035169      0.141069
Au     17.62719     15.75728     12.14685         0.092880      0.079407     -0.164432
Au     13.38036     12.95837     13.57676         0.044202      0.001374      0.054249
Au     17.83578     14.18469     14.29051        -0.071799     -0.169226      0.234795
Au     15.84062     13.60734     12.48791        -0.080581     -0.021788      0.000382
Au     16.40988     18.15722     16.11086         0.024856      0.048956     -0.035223
Au     14.59443     16.02796     16.88851         0.097026     -0.267069      0.105394
Au     17.26305     15.51426     16.60725         0.018494      0.007314      0.019550
Au     12.82522     15.32232     14.90498        -0.012303     -0.061725     -0.056426
Au     18.40186     17.02442     14.51420        -0.001837      0.062417     -0.017217
Au     13.76038     17.95656     15.24746        -0.094648      0.186363     -0.021141
Au     15.29721     13.72670     15.42280        -0.074369      0.087469     -0.155123
