13
# total energy = -30.33075673 eVAu     13.18968     15.88350     12.29120        -0.049577     -0.099406     -0.040290
Au     15.78459     16.71012     13.09422        -0.048829     -0.104951     -0.069167
Au     11.56615     15.09027     14.35068         0.080785      0.033000      0.048285
Au     14.34391     14.12475     14.10397        -0.057013      0.041987     -0.086043
Au     17.08408     14.26320     13.52517        -0.046213      0.064019     -0.039008
Au     15.38058     14.52331     11.36818         0.036917      0.038983      0.083960
Au     16.03647     14.85815     16.12837         0.013715      0.024958      0.008324
Au     15.99681     17.84942     15.50699         0.091150      0.070270      0.103254
Au     14.68858     16.77659     17.73585         0.029925      0.010486      0.063874
Au     17.47449     16.76107     17.60349        -0.010268     -0.042623     -0.004261
Au     18.22828     16.24953     14.96774         0.052760      0.005028      0.042455
Au     13.52713     17.04562     14.85986        -0.076816     -0.098981     -0.051880
Au     13.20062     14.84226     16.56152        -0.016535      0.057233     -0.059502
