13
# total energy = -25.36475982 eVAu     14.68680     16.09098      9.80890         0.000000      0.000000      0.000375
Au     13.63846     14.07175     11.25937         0.000876      0.001780     -0.037945
Au     15.73514     18.11024     11.25937        -0.000876     -0.001780     -0.037945
Au     16.70606     15.04264     11.25937        -0.001780      0.000876     -0.037945
Au     12.66754     17.13935     11.25937         0.001780     -0.000876     -0.037945
Au     14.68680     16.09098     12.74410         0.000000      0.000000     -0.015489
Au     14.68680     16.09098     20.82710         0.000000     -0.000000     -0.000375
Au     13.63846     14.07175     19.37663         0.000876      0.001780      0.037945
Au     16.70606     15.04264     19.37663        -0.001780      0.000876      0.037945
Au     15.73514     18.11024     19.37663        -0.000876     -0.001780      0.037945
Au     12.66754     17.13935     19.37663         0.001780     -0.000876      0.037945
Au     14.68680     16.09098     17.89190         0.000000     -0.000000      0.015489
Au     14.68680     16.09098     15.31800         0.000000      0.000000     -0.000000
