13
# total energy = -26.09143423 eVAu     13.57245     17.84133     14.39063         0.102410      0.173924      0.158902
Au     17.88302     16.15921     14.39183         0.088951     -0.144032      0.157189
Au     14.27093     13.27260     14.39885        -0.168804     -0.009598      0.160492
Au     13.82348     10.78797     14.19794         0.008004     -0.284647     -0.024925
Au     11.64981     19.47933     14.20642        -0.250310      0.137364     -0.025745
Au     20.25765     17.01345     14.19870         0.258355      0.155108     -0.026274
Au     16.91415     13.67640     14.87719        -0.102410     -0.173924     -0.158902
Au     12.60355     15.35852     14.87599        -0.088951      0.144032     -0.157189
Au     16.21564     18.24513     14.86897         0.168804      0.009598     -0.160492
Au     16.66312     20.72976     15.06988        -0.008004      0.284647      0.024925
Au     18.83679     12.03840     15.06140         0.250310     -0.137364      0.025745
Au     10.22895     14.50428     15.06912        -0.258355     -0.155108      0.026274
Au     15.24330     15.75888     14.63391        -0.000000      0.000000     -0.000000
