13
# total energy = -28.01930631 eVAu     14.25206     15.49507     11.82302         0.025656      0.097407     -0.014419
Au     11.97919     16.13222     13.52427         0.036335     -0.076939     -0.045450
Au     15.85380     13.57974     13.29608        -0.008330     -0.070869     -0.069808
Au     14.17790     18.04093     13.21173        -0.074659     -0.056803      0.055632
Au     13.02921     13.42531     13.68568        -0.015458      0.010183      0.090561
Au     16.72507     16.33619     13.06990         0.047499     -0.070951      0.033023
Au     17.02850     15.10432     15.65457        -0.036335      0.076939      0.045450
Au     13.15386     17.65689     15.88270         0.008330      0.070869      0.069808
Au     14.75554     15.74156     17.35591        -0.025656     -0.097407      0.014419
Au     14.50386     15.61830     14.58942         0.000000      0.000000     -0.000000
Au     14.82982     13.19567     15.96714         0.074659      0.056803     -0.055632
Au     15.97860     17.81126     15.49316         0.015458     -0.010183     -0.090561
Au     12.28262     14.90038     16.10891        -0.047499      0.070951     -0.033023
