13
# total energy = -29.05855252 eVAu     14.56320     15.93924     11.77528         0.002178      0.091022      0.007194
Au     12.11606     15.84450     13.19900        -0.042984     -0.113105      0.036762
Au     15.49242     13.57785     12.97648        -0.044576     -0.061241      0.064208
Au     13.70775     18.13646     13.38151         0.015431     -0.008513      0.055971
Au     12.93880     13.28529     14.25255         0.015103      0.071723      0.020230
Au     17.02874     15.93654     13.16528        -0.033006     -0.013444      0.098533
Au     16.89163     15.39204     15.97984         0.042984      0.113105     -0.036762
Au     13.51524     17.65878     16.20230         0.044576      0.061241     -0.064208
Au     14.44440     15.29739     17.40365        -0.002178     -0.091022     -0.007194
Au     14.50386     15.61830     14.58942        -0.000000      0.000000      0.000000
Au     15.29997     13.10014     15.79736        -0.015431      0.008513     -0.055971
Au     16.06901     17.95128     14.92629        -0.015103     -0.071723     -0.020230
Au     11.97895     15.30003     16.01353         0.033006      0.013444     -0.098533
