13
# total energy = 804.49681249 eVAu     16.31406     15.55221     12.55042         9.256647      1.531630     -3.616528
Au     11.99028     15.76401     12.55042        -9.256647     -1.531630     -3.616528
Au     14.25807     17.82000     12.55042        -1.531630      9.256647     -3.616528
Au     14.04627     13.49622     12.55042         1.531630     -9.256647     -3.616528
Au     16.31406     15.76401     16.65455         9.256647     -1.531630      3.616528
Au     14.04627     17.82000     16.65455         1.531630      9.256647      3.616528
Au     14.25807     13.49622     16.65455        -1.531630     -9.256647      3.616528
Au     11.99028     15.55221     16.65455        -9.256647      1.531630      3.616528
Au     14.15217     15.65811     14.60247        -0.000000      0.000000      0.000000
Au     12.14918     17.66110     14.60247        -3.060652      3.060652      0.000000
Au     16.15516     13.65512     14.60247         3.060652     -3.060652      0.000000
Au     12.14918     13.65512     14.60247        -3.060652     -3.060652      0.000000
Au     16.15516     17.66110     14.60247         3.060652      3.060652      0.000000
