13
# total energy = -30.17987447 eVAu     12.94506     13.86080     12.58939         0.223296     -0.158156     -0.122931
Au     16.54610     16.63871     13.99717        -0.052955      0.067762     -0.103202
Au     13.82126     16.96323     13.49817         0.167930     -0.175508      0.288063
Au     15.54750     12.49878     12.10640        -0.052357      0.066088      0.015475
Au     17.63299     14.00527     13.23386        -0.145447      0.035190     -0.048102
Au     15.31498     15.22414     12.04312        -0.110015     -0.022924     -0.070443
Au     14.91147     13.59095     14.54190         0.064184      0.076731      0.084996
Au     17.40159     17.09283     16.54854        -0.242751      0.105890      0.236372
Au     14.96991     18.24903     15.71641         0.080585     -0.144694      0.025242
Au     17.12957     14.26394     15.97710         0.026580      0.134235     -0.008482
Au     12.54600     14.99768     15.01831         0.026045      0.170923      0.107166
Au     19.07809     15.87162     14.75806         0.134681     -0.228255     -0.118450
Au     14.83353     15.62191     16.50325        -0.119777      0.072717     -0.285705
