13
# total energy = -29.59500880 eVAu     15.74453     17.15383     13.55076         0.168629      0.065593      0.169662
Au     13.98101     15.45748     12.54965         0.084514     -0.101734      0.175613
Au     17.66083     15.51487     12.29442        -0.181722      0.067156      0.066961
Au     13.21126     12.96771     13.35856         0.146459      0.085087      0.127499
Au     17.82535     13.95376     14.48227         0.005142     -0.040851     -0.125451
Au     15.89960     13.31034     12.52950        -0.031206      0.022039      0.038891
Au     16.37654     18.25915     16.04447         0.021280     -0.024559     -0.054213
Au     14.61747     15.77944     17.05211        -0.125947      0.033361     -0.026989
Au     17.26616     15.67216     16.49989        -0.083798     -0.026225     -0.085815
Au     12.68701     15.13972     15.10319         0.048856     -0.020135     -0.025031
Au     18.40677     17.10281     14.41662        -0.056542      0.023007      0.011957
Au     13.73877     17.74905     15.43978         0.098973     -0.091196     -0.154153
Au     15.19920     13.95969     15.13493        -0.094637      0.008457     -0.118930
