13
# total energy = -28.06884890 eVAu     15.64704     16.18098     14.11839        -0.116255      0.936283     -0.806001
Au     13.76139     15.39336     12.32466        -0.622411      1.143172     -1.584534
Au     17.51019     15.79830     12.19737         0.527404      0.366009     -1.580422
Au     13.45029     13.10247     13.56219        -1.016460     -1.852475      0.040482
Au     17.85273     14.23464     14.29995         0.834884     -1.333327      0.289256
Au     15.83022     13.75533     12.60903         0.599103     -1.274685     -1.121240
Au     16.32531     18.00882     16.04031         0.818628      1.728603      0.607619
Au     14.63097     16.06692     16.88253        -0.548545     -0.546216      1.396543
Au     17.20479     15.51462     16.53438         0.718298     -0.583103      1.309629
Au     13.00974     15.35961     14.86986        -1.664505      0.005529      0.695494
Au     18.26007     16.90842     14.48925         1.478240      1.355224      0.073337
Au     13.82706     17.89320     15.15000        -1.083943      1.278127     -0.284676
Au     15.30471     13.80333     15.37824         0.075560     -1.223142      0.964513
