13
# total energy = -29.48619721 eVAu     14.97179     16.19734     14.48499         0.986967      0.464504     -0.738413
Au     12.50616     16.95229     13.17939         0.021572      0.395013     -0.648701
Au     14.20979     15.19939     11.80474         0.135789      0.018180      0.282389
Au     14.25069     13.58652     14.04004         0.038388     -0.400742     -0.284811
Au     16.72476     14.44649     12.93696        -0.307709      0.197964     -0.328625
Au     16.06868     17.75980     16.45158        -0.229779      0.528830      0.225645
Au     14.02741     16.43230     17.70870        -0.173374      0.067193      0.169228
Au     16.54057     15.26544     17.64875         0.151102     -0.168168      0.178097
Au     12.58571     15.39761     15.27520        -0.874887     -0.707903      0.938720
Au     17.70742     16.07094     15.19394         0.295476     -0.043910     -0.300802
Au     13.22665     18.07989     15.65547        -0.030415      0.137504      0.083509
Au     14.33721     13.81453     16.79067        -0.051318     -0.024933      0.004256
Au     16.80591     13.54839     15.45065         0.038189     -0.463532      0.419507
