13
# total energy = -28.07044188 eVAu     14.23771     15.48311     11.81803         0.010619      0.009139     -0.007443
Au     11.97585     16.14522     13.54655        -0.007002     -0.008616     -0.023874
Au     15.89282     13.57584     13.29643        -0.027147     -0.005936     -0.005630
Au     14.20620     18.00057     13.20249        -0.025682      0.045874      0.002142
Au     13.03169     13.45289     13.66544        -0.008931     -0.033215      0.013529
Au     16.71504     16.35346     13.06439         0.018290     -0.010756     -0.002003
Au     17.03184     15.09132     15.63229         0.007002      0.008616      0.023874
Au     13.11484     17.66079     15.88235         0.027147      0.005936      0.005630
Au     14.76989     15.75352     17.36090        -0.010619     -0.009139      0.007443
Au     14.50386     15.61830     14.58942         0.000000      0.000000      0.000000
Au     14.80152     13.23603     15.97638         0.025682     -0.045874     -0.002142
Au     15.97612     17.78368     15.51340         0.008931      0.033215     -0.013529
Au     12.29265     14.88311     16.11442        -0.018290      0.010756      0.002003
