13
# total energy = -27.40474309 eVAu     15.34772     14.17638     13.82873        -0.669396      0.499809      0.438845
Au     15.02317     18.47268     13.82873         0.669396     -0.499809      0.438845
Au     17.25520     16.16227     13.75035        -0.438845      0.669396      0.499809
Au     13.11566     16.48679     13.75035         0.438845     -0.669396      0.499809
Au     13.03728     18.39430     15.73624         0.499809     -0.438845      0.669396
Au     17.33358     14.25476     15.73624        -0.499809      0.438845      0.669396
Au     15.02317     14.17638     17.96827         0.669396      0.499809     -0.438845
Au     15.34772     18.47268     17.96827        -0.669396     -0.499809     -0.438845
Au     17.25520     16.48679     18.04665        -0.438845     -0.669396     -0.499809
Au     13.11566     16.16227     18.04665         0.438845      0.669396     -0.499809
Au     17.33358     18.39430     16.06076        -0.499809     -0.438845     -0.669396
Au     13.03728     14.25476     16.06076         0.499809      0.438845     -0.669396
Au     15.18543     16.32453     15.89850        -0.000000      0.000000      0.000000
