13
# total energy = -29.93011166 eVAu     13.09625     16.47063     12.05484        -0.035013     -0.066215     -0.033863
Au     14.80665     17.25951     14.12395         0.041478      0.203957     -0.101805
Au     11.10919     15.25785     13.62446        -0.097172     -0.020529     -0.069100
Au     17.50632     16.42877     14.00670        -0.033194     -0.095455      0.058000
Au     12.03697     17.74514     14.41385        -0.007444     -0.105872      0.044937
Au     13.48793     13.95294     13.27401         0.099292      0.023029      0.042291
Au     15.65701     15.39812     12.22235        -0.101222      0.115205      0.122512
Au     12.97518     15.34518     15.66026         0.106834      0.041066      0.116686
Au     16.48534     17.89068     16.27184         0.017095     -0.020566      0.077056
Au     13.72430     17.97942     16.59659         0.111526     -0.063011     -0.147401
Au     17.71556     15.38380     16.56313         0.093866      0.011760      0.072273
Au     15.13319     15.68914     17.41373        -0.090244      0.010779     -0.060707
Au     15.67579     14.44266     14.95442        -0.105803     -0.034147     -0.120878
