13
# total energy = -28.30587086 eVAu     14.63685     17.11096     11.83125        -0.124089     -0.052246      0.208718
Au     15.65188     19.55074     13.76528         0.078197     -0.222397     -0.036814
Au     17.54340     17.27249     12.99459        -0.126352      0.132704      0.042586
Au     12.86180     18.01511     13.80815         0.187729     -0.122843     -0.038639
Au     13.33634     15.21883     13.43687         0.061956      0.084654     -0.139587
Au     16.18867     14.90636     12.86148        -0.087038      0.018352      0.167378
Au     15.29096     16.81162     14.69563         0.063972     -0.074392     -0.058760
Au     17.32106     18.52725     15.59037         0.020585     -0.042110      0.134994
Au     14.56013     18.66891     16.57144        -0.012019     -0.059197     -0.033281
Au     16.39434     16.64813     17.41450         0.283283      0.153226     -0.017786
Au     12.95364     16.47042     16.14420        -0.106876     -0.004722     -0.049750
Au     14.72955     14.06550     15.41050        -0.163406      0.020608     -0.150753
Au     17.81085     15.63101     15.26472        -0.075942      0.168365     -0.028306
