13
# total energy = -29.67507221 eVAu     15.03885     16.34978     14.30974        -0.055334      0.160868     -0.518983
Au     12.49416     16.98201     13.10778         0.228907     -0.065717      0.221881
Au     14.20997     15.19624     11.80120         0.057934      0.154679      0.108054
Au     14.23720     13.62177     14.02733         0.282847     -0.245259      0.130903
Au     16.67164     14.38887     12.89679        -0.192976      0.133626      0.158689
Au     16.07912     17.72378     16.44253        -0.648190      0.554955      0.479603
Au     14.04399     16.44207     17.75357        -0.141372      0.124349     -0.017944
Au     16.52872     15.20861     17.75850         0.147983     -0.087323     -0.178953
Au     12.58541     15.33084     15.32314        -0.172366      0.332399      0.177765
Au     17.69098     16.10826     15.20290         0.331737     -0.757497     -0.393379
Au     13.16791     18.07774     15.68097         0.154706     -0.412748     -0.099428
Au     14.33840     13.82505     16.82680         0.172546     -0.033768     -0.258535
Au     16.87642     13.49590     15.48983        -0.166422      0.141435      0.190328
