13
# total energy = -29.01357406 eVAu     14.54306     15.91784     11.76415         0.019394      0.022466      0.090803
Au     12.12746     15.89160     13.20610        -0.061675     -0.173563      0.001114
Au     15.51965     13.53756     13.01199        -0.088304      0.123968     -0.065644
Au     13.74679     18.15707     13.42333        -0.151822      0.055655     -0.193891
Au     12.96154     13.26160     14.27571        -0.146708      0.047958     -0.162892
Au     17.00080     15.97995     13.17871         0.009510     -0.114599      0.018721
Au     16.88023     15.34494     15.97274         0.061675      0.173563     -0.001114
Au     13.48801     17.69907     16.16679         0.088304     -0.123968      0.065644
Au     14.46454     15.31879     17.41478        -0.019394     -0.022466     -0.090803
Au     14.50386     15.61830     14.58942        -0.000000      0.000000     -0.000000
Au     15.26093     13.07953     15.75554         0.151822     -0.055655      0.193891
Au     16.04627     17.97497     14.90313         0.146708     -0.047958      0.162892
Au     12.00689     15.25662     16.00010        -0.009510      0.114599     -0.018721
