13
# total energy = -26.92033878 eVAu     17.47635     17.08910     13.87285        -0.534537     -0.372139      0.308454
Au     11.57391     15.01306     13.87285         0.534537      0.372139      0.308454
Au     15.43613     19.00230     13.74583        -0.308454     -0.534537      0.372139
Au     13.61413     13.09986     13.74583         0.308454      0.534537      0.372139
Au     15.56315     16.96208     11.83260        -0.372139     -0.308454      0.534537
Au     13.48711     15.14008     11.83260         0.372139      0.308454      0.534537
Au     11.57391     17.08910     15.69482         0.534537     -0.372139     -0.308454
Au     17.47635     15.01306     15.69482        -0.534537      0.372139     -0.308454
Au     15.43613     13.09986     15.82187        -0.308454      0.534537     -0.372139
Au     13.61413     19.00230     15.82187         0.308454     -0.534537     -0.372139
Au     13.48711     16.96208     17.73507         0.372139     -0.308454     -0.534537
Au     15.56315     15.14008     17.73507        -0.372139      0.308454     -0.534537
Au     14.52513     16.05108     14.78385         0.000000     -0.000000      0.000000
