13
# total energy = -29.92326184 eVAu     14.57722     16.70484     12.98724        -0.007304     -0.031091      0.024663
Au     11.72674     16.56160     12.79232         0.016880      0.007418      0.010611
Au     13.23402     14.90914     11.20928         0.014788      0.004888      0.005732
Au     11.01860     13.79093     12.64190         0.022690      0.037201     -0.015570
Au     17.18607     15.95094     13.88838        -0.014335     -0.004804     -0.013318
Au     13.57056     13.11867     13.37672        -0.016076     -0.000521      0.006557
Au     15.77532     14.36252     12.12882         0.000805     -0.009340      0.011244
Au     15.67822     17.60300     15.47147        -0.014366     -0.000563     -0.010786
Au     14.25300     15.37030     16.47269         0.015343     -0.012981      0.004197
Au     16.98431     15.36186     16.68532        -0.006831      0.028385     -0.037272
Au     12.95035     17.46051     15.09513        -0.006622     -0.009421      0.005636
Au     12.04723     14.78861     14.97679        -0.004161     -0.015515     -0.007984
Au     15.77655     13.70015     14.87295        -0.000812      0.006343      0.016288
