13
# total energy = -28.52238144 eVAu     14.14940     18.20564     14.63095        -0.007469      0.883568      0.008862
Au     18.02212     15.49564     14.61417        -0.930255     -2.004008      0.206830
Au     13.64273     13.59062     14.62774        -0.754919     -0.521165     -0.011283
Au     14.27041     11.01803     14.34212         0.371556      0.840853      0.130601
Au     11.63524     18.96997     14.34436         0.371932     -0.767953      0.121984
Au     19.75025     17.23188     14.35031         0.517330      1.287680     -0.078926
Au     16.33720     13.31209     14.63687         0.007469     -0.883568     -0.008862
Au     12.46445     16.02209     14.65365         0.930255      2.004008     -0.206830
Au     16.84384     17.92711     14.64008         0.754919      0.521165      0.011283
Au     16.21619     20.49970     14.92570        -0.371556     -0.840853     -0.130601
Au     18.85136     12.54776     14.92346        -0.371932      0.767953     -0.121984
Au     10.73635     14.28585     14.91751        -0.517330     -1.287680      0.078926
Au     15.24330     15.75888     14.63391         0.000000      0.000000      0.000000
