13
# total energy = -26.86265724 eVAu     14.21943     16.13259     12.34512        -1.174131      0.104834     -1.520846
Au     16.45065     17.79669     12.59742         0.442418      1.308758     -1.338322
Au     18.42714     16.38714     13.98228         1.871630      0.289143     -0.336256
Au     14.81694     13.69461     13.57404        -0.741532     -1.659056     -0.631310
Au     16.79247     15.06006     12.14436         0.687959     -0.670891     -1.666091
Au     15.84066     15.98724     14.44647        -0.000000      0.000000     -0.000000
Au     16.86438     18.27987     15.31890         0.741532      1.659056      0.631310
Au     14.88885     16.91439     16.74858        -0.687959      0.670891      1.666091
Au     17.46189     15.84186     16.54785         1.174131     -0.104834      1.520846
Au     13.25418     15.58731     14.91069        -1.871630     -0.289143      0.336256
Au     14.26386     18.12255     14.30709        -1.141522      1.545962     -0.100443
Au     15.23067     14.17779     16.29555        -0.442418     -1.308758      1.338322
Au     17.41743     13.85190     14.58588         1.141522     -1.545962      0.100443
