13
# total energy = -29.17575989 eVAu     15.64143     16.22615     14.07951         0.023618      0.379636     -0.242722
Au     13.73136     15.44851     12.24822        -0.136711      0.050071     -0.206317
Au     17.53563     15.81596     12.12113         0.270907     -0.020610     -0.196280
Au     13.40125     13.01310     13.56414        -0.131989     -0.252379      0.015024
Au     17.89301     14.17032     14.31390         0.123477     -0.148245     -0.020905
Au     15.85912     13.69384     12.55494        -0.071019     -0.399995     -0.314727
Au     16.36480     18.09221     16.06962         0.172021      0.397001      0.205760
Au     14.60451     16.04057     16.94990        -0.105287     -0.018645      0.163771
Au     17.23944     15.48649     16.59756         0.192139     -0.020529      0.254617
Au     12.92944     15.35988     14.90341        -0.486219     -0.163342      0.017909
Au     18.33138     16.97380     14.49279         0.392911      0.269202      0.027108
Au     13.77477     17.95486     15.13627        -0.177319      0.235467      0.162580
Au     15.30836     13.74432     15.42477        -0.066530     -0.307632      0.134182
