13
# total energy = -30.14687763 eVAu     11.92846     16.07470     12.92562         0.009185     -0.005239     -0.000812
Au     16.43376     17.04528     13.31153        -0.015166     -0.015908     -0.014470
Au     13.83603     17.69267     14.04056         0.000599     -0.003068     -0.002768
Au     12.44430     13.36712     13.38306         0.008064      0.009195      0.007800
Au     16.94067     14.43507     14.12749        -0.024454      0.003954      0.001643
Au     14.57147     15.05250     12.78406         0.009201     -0.005024     -0.002385
Au     15.62901     15.17364     16.49630        -0.001625     -0.007549      0.002042
Au     16.04433     18.75779     15.37695         0.000056      0.004127      0.004140
Au     14.00883     17.38573     16.84139        -0.008160      0.004932      0.014826
Au     16.58164     17.53646     17.81788         0.007284     -0.000979      0.007287
Au     13.00379     15.29925     15.37797         0.002377     -0.006217     -0.011640
Au     17.94381     16.48426     15.67624         0.017825      0.008945      0.005921
Au     14.64943     13.06057     14.92476        -0.005186      0.012830     -0.011582
