13
# total energy = -26.09426420 eVAu     13.56880     17.84786     14.39014         0.201803      0.070308      0.177786
Au     17.88935     16.15918     14.39140        -0.025310     -0.172438      0.173835
Au     14.26746     13.26616     14.39839        -0.129737      0.126996      0.178686
Au     13.82380     10.78724     14.19800        -0.002672     -0.349212     -0.030074
Au     11.64904     19.47942     14.20645        -0.301433      0.179352     -0.030471
Au     20.25898     17.01439     14.19869         0.302056      0.171849     -0.029780
Au     16.91780     13.66987     14.87768        -0.201803     -0.070308     -0.177786
Au     12.59722     15.35855     14.87642         0.025310      0.172438     -0.173835
Au     16.21911     18.25157     14.86943         0.129737     -0.126996     -0.178686
Au     16.66280     20.73049     15.06982         0.002672      0.349212      0.030074
Au     18.83756     12.03831     15.06137         0.301433     -0.179352      0.030471
Au     10.22762     14.50334     15.06913        -0.302056     -0.171849      0.029780
Au     15.24330     15.75888     14.63391         0.000000     -0.000000      0.000000
