13
# total energy = -26.86392894 eVAu     17.48279     17.09062     13.87129        -0.571279     -0.373218      0.304189
Au     11.56747     15.01154     13.87129         0.571279      0.373218      0.304189
Au     15.43769     19.00874     13.74431        -0.304189     -0.571279      0.373218
Au     13.61257     13.09342     13.74431         0.304189      0.571279      0.373218
Au     15.56467     16.96364     11.82616        -0.373218     -0.304189      0.571279
Au     13.48559     15.13852     11.82616         0.373218      0.304189      0.571279
Au     11.56747     17.09062     15.69638         0.571279     -0.373218     -0.304189
Au     17.48279     15.01154     15.69638        -0.571279      0.373218     -0.304189
Au     15.43769     13.09342     15.82339        -0.304189      0.571279     -0.373218
Au     13.61257     19.00874     15.82339         0.304189     -0.571279     -0.373218
Au     13.48559     16.96364     17.74151         0.373218     -0.304189     -0.571279
Au     15.56467     15.13852     17.74151        -0.373218      0.304189     -0.571279
Au     14.52513     16.05108     14.78385        -0.000000     -0.000000      0.000000
