13
# total energy = -28.41774445 eVAu     16.18395     15.25580     12.40688        -0.534691      0.253186      0.161436
Au     12.12039     16.06042     12.40688         0.534691     -0.253186      0.161436
Au     14.55448     17.68989     12.40688        -0.253186     -0.534691      0.161436
Au     13.74986     13.62633     12.40688         0.253186      0.534691      0.161436
Au     16.18395     16.06042     16.79809        -0.534691     -0.253186     -0.161436
Au     13.74986     17.68989     16.79809         0.253186     -0.534691     -0.161436
Au     14.55448     13.62633     16.79809        -0.253186      0.534691     -0.161436
Au     12.12039     15.25580     16.79809         0.534691      0.253186     -0.161436
Au     14.15217     15.65811     14.60247         0.000000      0.000000      0.000000
Au     12.18376     17.62652     14.60247         0.226742     -0.226742      0.000000
Au     16.12058     13.68970     14.60247        -0.226742      0.226742      0.000000
Au     12.18376     13.68970     14.60247         0.226742      0.226742      0.000000
Au     16.12058     17.62652     14.60247        -0.226742     -0.226742      0.000000
