13
# total energy = -28.24710513 eVAu     16.00290     14.90894     12.23040        -0.213613      0.234191     -0.030751
Au     12.30144     16.40728     12.23040         0.213613     -0.234191     -0.030751
Au     14.90134     17.50884     12.23040        -0.234191     -0.213613     -0.030751
Au     13.40300     13.80738     12.23040         0.234191      0.213613     -0.030751
Au     16.00290     16.40728     16.97457        -0.213613     -0.234191      0.030751
Au     13.40300     17.50884     16.97457         0.234191     -0.213613      0.030751
Au     14.90134     13.80738     16.97457        -0.234191      0.213613      0.030751
Au     12.30144     14.90894     16.97457         0.213613      0.234191      0.030751
Au     14.15217     15.65811     14.60247         0.000000      0.000000     -0.000000
Au     12.23049     17.57979     14.60247         0.001871     -0.001871     -0.000000
Au     16.07385     13.73643     14.60247        -0.001871      0.001871     -0.000000
Au     12.23049     13.73643     14.60247         0.001871      0.001871     -0.000000
Au     16.07385     17.57979     14.60247        -0.001871     -0.001871     -0.000000
