13
# total energy = -29.01238654 eVAu     14.53835     15.91297     11.76732         0.025528      0.029097      0.082829
Au     12.12647     15.89337     13.20833        -0.054261     -0.161504     -0.000737
Au     15.52154     13.53428     13.01802        -0.091567      0.128560     -0.072184
Au     13.74769     18.16734     13.42203        -0.138417      0.020829     -0.182566
Au     12.95786     13.25787     14.27099        -0.118124      0.053248     -0.150853
Au     16.99301     15.98485     13.18414         0.027573     -0.119632      0.001761
Au     16.88122     15.34317     15.97051         0.054261      0.161504      0.000737
Au     13.48612     17.70235     16.16076         0.091567     -0.128560      0.072184
Au     14.46925     15.32366     17.41161        -0.025528     -0.029097     -0.082829
Au     14.50386     15.61830     14.58942         0.000000      0.000000     -0.000000
Au     15.26003     13.06926     15.75684         0.138417     -0.020829      0.182566
Au     16.04995     17.97870     14.90785         0.118124     -0.053248      0.150853
Au     12.01468     15.25172     15.99467        -0.027573      0.119632     -0.001761
