13
# total energy = -30.13822710 eVAu     13.23635     16.07680     12.31422         0.002197     -0.210239      0.042450
Au     15.84415     16.62773     13.26077         0.062160     -0.045140     -0.423042
Au     11.66611     15.04755     14.34872        -0.067043      0.056698      0.022841
Au     14.25893     14.00886     14.01631        -0.094063      0.019970     -0.123622
Au     17.08144     14.10461     13.59066         0.000721      0.162916     -0.200692
Au     15.34852     14.49881     11.46973         0.046559      0.040292     -0.068423
Au     15.90674     15.01026     15.93314         0.415858     -0.018097      0.533514
Au     16.05305     18.10235     15.53099         0.093977     -0.152236      0.148193
Au     14.60955     16.84489     17.64200         0.104315     -0.045988      0.184740
Au     17.43468     16.71012     17.56348        -0.117180      0.029672     -0.157850
Au     18.16855     16.31457     14.85961         0.143796     -0.051922      0.153801
Au     13.65774     16.95359     14.97017        -0.427899      0.026669     -0.040615
Au     13.23557     14.67765     16.59742        -0.163398      0.187406     -0.071295
