13
# total energy = -29.38822585 eVAu     15.03737     16.03720     14.67748         0.071181     -0.016955     -0.244641
Au     12.63487     16.97654     13.19349        -0.336069      0.035400     -0.130439
Au     14.24276     15.25010     11.95198         0.070653     -0.143059     -0.295779
Au     14.20251     13.41178     13.95277         0.122910      0.207765      0.243045
Au     16.72125     14.60870     12.94255        -0.017081     -0.142165     -0.101863
Au     16.01864     17.92944     16.48962         0.119547     -0.066158     -0.053356
Au     14.00141     16.41897     17.66786        -0.160360      0.123478      0.104502
Au     16.53462     15.38331     17.52426         0.208938     -0.321983     -0.060367
Au     12.40285     15.31769     15.38663         0.127278      0.079177     -0.134389
Au     17.82164     16.07539     15.09768        -0.230525     -0.086475      0.222826
Au     13.33697     18.04942     15.56232        -0.137470      0.231902      0.295000
Au     14.26416     13.82661     16.75680         0.253419     -0.159465     -0.100243
Au     16.74371     13.46577     15.41762        -0.092421      0.258538      0.255705
