13
# total energy = -28.07033122 eVAu     14.23745     15.48301     11.81699         0.013428      0.010847      0.008024
Au     11.97507     16.14546     13.54617         0.005716     -0.012241     -0.018156
Au     15.89353     13.57491     13.29596        -0.036626      0.006631      0.001364
Au     14.20610     18.00150     13.20195        -0.024450      0.032079      0.010003
Au     13.03102     13.45213     13.66508         0.000158     -0.021466      0.018996
Au     16.71591     16.35393     13.06380         0.005720     -0.016738      0.006894
Au     17.03262     15.09108     15.63267        -0.005716      0.012241      0.018156
Au     13.11413     17.66172     15.88282         0.036626     -0.006631     -0.001364
Au     14.77015     15.75362     17.36194        -0.013428     -0.010847     -0.008024
Au     14.50386     15.61830     14.58942         0.000000      0.000000      0.000000
Au     14.80162     13.23510     15.97692         0.024450     -0.032079     -0.010003
Au     15.97679     17.78444     15.51376        -0.000158      0.021466     -0.018996
Au     12.29178     14.88264     16.11501        -0.005720      0.016738     -0.006894
