13
# total energy = -29.40147873 eVAu     15.03566     16.03989     14.67575         0.111795     -0.052925     -0.265246
Au     12.62685     16.97952     13.18855        -0.261027     -0.005905     -0.076889
Au     14.24604     15.24622     11.94517        -0.001758     -0.096262     -0.243664
Au     14.20058     13.41034     13.95489         0.165969      0.264247      0.236011
Au     16.72146     14.61256     12.91379        -0.016115     -0.174844      0.213649
Au     16.02108     17.93417     16.48855         0.100275     -0.153749     -0.036059
Au     13.99389     16.42449     17.67219        -0.049317      0.052022      0.071397
Au     16.54336     15.37578     17.52533         0.103152     -0.235435     -0.059558
Au     12.40128     15.31748     15.38541         0.171384      0.090463     -0.141811
Au     17.82630     16.08050     15.10407        -0.324919     -0.168636      0.157262
Au     13.33582     18.05445     15.56941        -0.151237      0.184131      0.214166
Au     14.26731     13.82068     16.75601         0.223394     -0.078489     -0.089574
Au     16.74313     13.45485     15.44196        -0.071595      0.375381      0.020316
