13
# total energy = -29.92701340 eVAu     14.57601     16.69674     12.99377        -0.007875     -0.012058      0.007355
Au     11.73717     16.57414     12.79236         0.005979     -0.014435      0.012869
Au     13.24676     14.91805     11.20607         0.000244     -0.009435      0.015827
Au     11.02436     13.81644     12.62220         0.021377      0.011131      0.005158
Au     17.18162     15.95497     13.87447        -0.006294     -0.008141      0.011476
Au     13.56269     13.11167     13.38569        -0.016396      0.005832     -0.018924
Au     15.77173     14.34282     12.14396         0.010511     -0.006504     -0.020418
Au     15.66914     17.61100     15.45976         0.000546     -0.016767      0.005300
Au     14.25627     15.35798     16.47983         0.007995      0.012937     -0.000385
Au     16.99140     15.38740     16.66557        -0.014146      0.003080     -0.017406
Au     12.94394     17.44284     15.11068        -0.014357      0.008874      0.003994
Au     12.04391     14.77445     14.97997        -0.006522      0.012524     -0.011830
Au     15.77319     13.69455     14.88469         0.018938      0.012961      0.006983
