13
# total energy = -30.12653933 eVAu     13.01492     14.00401     12.63165        -0.042816     -0.041865     -0.071306
Au     16.55868     16.67638     13.91303         0.074378      0.004803      0.018532
Au     13.85429     16.91180     13.31934         0.006601     -0.079690      0.121956
Au     15.44588     12.51531     12.14149         0.001875     -0.019540     -0.071235
Au     17.58625     13.98192     13.26005        -0.073519     -0.010361     -0.089450
Au     15.42546     15.23167     11.91033         0.016926     -0.033319     -0.074094
Au     14.91951     13.64706     14.57513         0.201885      0.052129      0.155496
Au     17.33864     17.16206     16.50399        -0.089661     -0.027061      0.088734
Au     14.79732     17.93307     15.72200         0.003805      0.072606      0.012283
Au     17.18475     14.34500     15.99718        -0.047938      0.029914      0.003265
Au     12.64299     15.20045     15.08378        -0.123085      0.029174      0.019643
Au     19.07553     15.86250     14.72832         0.081337     -0.039074     -0.031713
Au     14.83384     15.40765     16.74536        -0.009787      0.062285     -0.082111
