13
# total energy = -30.37344311 eVAu     13.05025     15.61725     12.16389         0.038070     -0.007638      0.044593
Au     15.64444     16.77117     13.00559        -0.049545      0.013665     -0.005139
Au     11.54267     15.14024     14.39538        -0.008978      0.000074     -0.032695
Au     14.34589     14.17681     14.09603         0.015885      0.016202      0.018731
Au     17.09351     14.42725     13.52308         0.000060     -0.000200      0.011192
Au     15.43880     14.56110     11.34927        -0.032532      0.004852     -0.015822
Au     16.04245     14.86085     16.13465        -0.021978     -0.066663     -0.011447
Au     15.98339     17.70039     15.51946        -0.005831      0.017745     -0.007986
Au     14.78081     16.73343     17.90279         0.015115     -0.006432      0.007926
Au     17.51068     16.69189     17.66279         0.019997      0.026286      0.021656
Au     18.35797     16.20099     15.10305         0.006542     -0.002716      0.019170
Au     13.48392     17.09244     14.69382         0.010455      0.004319     -0.048935
Au     13.22659     15.00397     16.54743         0.012741      0.000507     -0.001244
