13
# total energy = -25.38215644 eVAu     14.68680     16.09098      9.73037         0.000000      0.000000      0.019304
Au     13.64520     14.08519     11.19485         0.008111      0.015584     -0.001937
Au     15.72840     18.09680     11.19485        -0.008111     -0.015584     -0.001937
Au     16.69262     15.04938     11.19485        -0.015584      0.008111     -0.001937
Au     12.68098     17.13261     11.19485         0.015584     -0.008111     -0.001937
Au     14.68680     16.09098     12.72055         0.000000      0.000000      0.013602
Au     14.68680     16.09098     20.90563         0.000000      0.000000     -0.019304
Au     13.64520     14.08519     19.44115         0.008111      0.015584      0.001937
Au     16.69262     15.04938     19.44115        -0.015584      0.008111      0.001937
Au     15.72840     18.09680     19.44115        -0.008111     -0.015584      0.001937
Au     12.68098     17.13261     19.44115         0.015584     -0.008111      0.001937
Au     14.68680     16.09098     17.91545         0.000000      0.000000     -0.013602
Au     14.68680     16.09098     15.31800         0.000000      0.000000     -0.000000
