13
# total energy = -29.73842939 eVAu     14.35425     18.30718     14.64120        -0.485604      0.587758     -0.006052
Au     18.07684     15.25703     14.61456        -0.847487     -1.326980      0.127763
Au     13.42718     13.71717     14.63583         1.035152     -1.074359     -0.117762
Au     14.43275     11.11167     14.39668         0.025737      0.915512      0.094856
Au     11.64247     18.77861     14.39839         0.557841     -0.198575      0.072876
Au     19.53419     17.29146     14.41303         1.584748      0.801825     -0.167108
Au     16.13235     13.21055     14.62662         0.485604     -0.587758      0.006052
Au     12.40973     16.26070     14.65326         0.847487      1.326980     -0.127763
Au     17.05939     17.80056     14.63199        -1.035152      1.074359      0.117762
Au     16.05385     20.40606     14.87114        -0.025737     -0.915512     -0.094856
Au     18.84413     12.73912     14.86943        -0.557841      0.198575     -0.072876
Au     10.95241     14.22627     14.85479        -1.584748     -0.801825      0.167108
Au     15.24330     15.75888     14.63391         0.000000      0.000000      0.000000
