13
# total energy = -29.36919142 eVAu     15.03261     16.04467     14.67266         0.174172     -0.105857     -0.297807
Au     12.61257     16.98482     13.17977        -0.138271     -0.072868      0.009187
Au     14.25187     15.23932     11.93305        -0.132080     -0.016701     -0.157354
Au     14.19715     13.40778     13.95867         0.232543      0.357512      0.225330
Au     16.72184     14.61943     12.86259        -0.009469     -0.199436      0.624038
Au     16.02541     17.94259     16.48665         0.068607     -0.299504     -0.011996
Au     13.98052     16.43432     17.67989         0.129352     -0.065137      0.022522
Au     16.55890     15.36237     17.52722        -0.066336     -0.090633     -0.048562
Au     12.39848     15.31712     15.38323         0.246264      0.105906     -0.155948
Au     17.83459     16.08958     15.11544        -0.469443     -0.277280      0.063686
Au     13.33378     18.06340     15.58204        -0.171694      0.106651      0.079788
Au     14.27292     13.81012     16.75460         0.162239      0.057733     -0.069922
Au     16.74211     13.43540     15.48527        -0.025886      0.499613     -0.282963
