13
# total energy = -29.87857080 eVAu     11.24776     16.85006     12.08401        -0.116298      0.012276     -0.079423
Au     14.00535     16.44284     12.11521         0.011433      0.089637      0.151993
Au     16.72384     15.85676     12.31405         0.118822     -0.030750     -0.068650
Au     12.23045     14.27557     12.41485        -0.016241      0.010605      0.013226
Au     14.87742     13.79568     12.52590         0.016385      0.004594      0.015809
Au     15.51902     17.34269     14.34115        -0.152251     -0.008391     -0.087261
Au     14.21758     18.61637     16.45236         0.011507      0.087287      0.109464
Au     12.34193     16.58745     16.71364         0.022296     -0.000698      0.004927
Au     15.23522     16.06299     16.83488        -0.021770      0.005003      0.002277
Au     10.90649     15.73390     14.60154         0.004800     -0.011545     -0.017686
Au     12.72925     17.84880     14.22418         0.146180     -0.062495     -0.074899
Au     13.60448     14.86366     14.83533        -0.015243     -0.087778      0.048609
Au     16.44654     14.72832     14.83427        -0.009619     -0.007744     -0.018386
