13
# total energy = -29.96459298 eVAu     11.17629     16.82872     12.05513        -0.004979     -0.030809      0.017825
Au     14.00691     16.45796     12.15106         0.003507      0.021015      0.007831
Au     16.78564     15.81107     12.29043        -0.008556     -0.030573      0.016764
Au     12.23733     14.30404     12.41034        -0.001973      0.001797     -0.012528
Au     14.88105     13.82432     12.52106         0.003584      0.000882     -0.012686
Au     15.48445     17.33686     14.32409        -0.012470      0.011294     -0.014714
Au     14.21849     18.63770     16.52936        -0.005132     -0.032353      0.015292
Au     12.35405     16.60726     16.69554        -0.006030      0.010783      0.003125
Au     15.23237     16.08475     16.81588         0.009887      0.009625      0.004568
Au     10.92007     15.75473     14.58650        -0.009041      0.008801     -0.001600
Au     12.75987     17.83062     14.21021         0.016643      0.006837     -0.013373
Au     13.58667     14.77453     14.88396         0.002898      0.016433     -0.009547
Au     16.44212     14.75252     14.81779         0.011662      0.006267     -0.000958
