13
# total energy = -30.31507217 eVAu     13.22356     15.92269     12.32747        -0.130925     -0.034558     -0.163030
Au     15.81925     16.68333     13.11483        -0.041448      0.028464      0.065847
Au     11.57073     15.07914     14.34230         0.054386      0.012992      0.064716
Au     14.32191     14.10534     14.07857         0.008268     -0.018598      0.019007
Au     17.07535     14.23497     13.53064         0.002090      0.077897      0.000473
Au     15.36948     14.51409     11.37218         0.051663      0.013544      0.064034
Au     16.01877     14.86932     16.10295         0.024054      0.080984      0.020235
Au     16.01501     17.89756     15.52070        -0.083179     -0.052148     -0.092511
Au     14.66318     16.80072     17.73389         0.023213     -0.071318     -0.057610
Au     17.45190     16.76714     17.57382         0.063687     -0.071858      0.094761
Au     18.23605     16.26808     14.93964        -0.069140     -0.053592      0.018481
Au     13.53396     17.02345     14.90104         0.078785      0.008743     -0.021344
Au     13.20223     14.81197     16.55921         0.018546      0.079448     -0.013058
