13
# total energy = -26.37024327 eVAu     14.99489     16.28856     12.58815         0.287092      0.608901     -1.836518
Au     12.58904     15.11055     13.38614        -1.481817     -0.251290     -1.246321
Au     14.91430     13.57326     13.23976         0.235800     -1.385349     -1.348443
Au     13.28637     17.64735     14.33255        -0.962213      1.589704     -0.544559
Au     16.04653     17.67463     14.77343         1.050925      1.615200     -0.228600
Au     17.05460     15.15599     14.09800         1.782675     -0.228996     -0.715521
Au     16.61791     15.81540     16.77781         1.481817      0.251290      1.246321
Au     14.29265     17.35266     16.92419        -0.235800      1.385349      1.348443
Au     14.21203     14.63736     17.57577        -0.287092     -0.608901      1.836518
Au     14.60346     15.46296     15.08196         0.000000     -0.000000     -0.000000
Au     15.92058     13.27860     15.83137         0.962213     -1.589704      0.544559
Au     13.16042     13.25129     15.39052        -1.050925     -1.615200      0.228600
Au     12.15235     15.76993     16.06595        -1.782675      0.228996      0.715521
