13
# total energy = -30.11797059 eVAu     11.93846     16.05449     12.85551         0.167401      0.052005      0.148621
Au     16.47424     17.02916     13.34817         0.062034      0.045425      0.028109
Au     13.86153     17.65978     14.01735        -0.126907     -0.128415      0.011053
Au     12.33360     13.39677     13.51298         0.107413     -0.007523     -0.045225
Au     17.00911     14.40984     14.14248         0.008546      0.042153     -0.029922
Au     14.58151     15.07912     12.81023        -0.186397     -0.107656      0.064666
Au     15.61805     15.20779     16.40485        -0.022674      0.110090      0.065011
Au     16.00821     18.75741     15.38647         0.068153     -0.026387      0.067112
Au     13.97692     17.38829     16.85964         0.039111     -0.103080     -0.079997
Au     16.57496     17.55790     17.82823         0.008295     -0.042702     -0.158747
Au     12.95906     15.28028     15.44090         0.038216      0.106539     -0.124972
Au     17.98841     16.48949     15.68886        -0.098445      0.027125      0.050580
Au     14.69146     13.05472     14.78814        -0.064747      0.032425      0.003711
