13
# total energy = -30.10149773 eVAu     13.24620     16.06776     12.32855        -0.126051     -0.070240     -0.149226
Au     15.84128     16.60920     13.26825         0.096351      0.187910     -0.461417
Au     11.69103     15.05191     14.35031        -0.372099     -0.007466      0.002040
Au     14.25727     14.02565     14.01099        -0.071100     -0.188269     -0.054417
Au     17.06804     14.11589     13.59071         0.174668     -0.007648     -0.182526
Au     15.34523     14.50737     11.49337         0.083705     -0.075526     -0.355324
Au     15.90414     15.02881     15.92626         0.395390     -0.236287      0.551000
Au     16.05949     18.08547     15.54242         0.013421      0.051193      0.007472
Au     14.62102     16.84041     17.62280        -0.041185      0.024909      0.403649
Au     17.41807     16.71014     17.54223         0.092513      0.043857      0.109856
Au     18.14675     16.31504     14.86639         0.399559     -0.039195      0.058475
Au     13.66217     16.93396     14.97194        -0.429216      0.265723     -0.050467
Au     13.24069     14.68617     16.58300        -0.215957      0.051039      0.120884
