13
# total energy = -28.13639369 eVAu     14.14615     16.13875     12.24996        -0.025223      0.003472     -0.034099
Au     16.47800     17.87822     12.51443         0.009643      0.030265     -0.032322
Au     18.54309     16.40474     13.96177         0.047103      0.006692     -0.008872
Au     14.77058     13.59149     13.53497        -0.016002     -0.040214     -0.015716
Au     16.83530     15.01822     12.04100         0.016392     -0.015925     -0.039851
Au     15.84066     15.98724     14.44647         0.000000     -0.000000      0.000000
Au     16.91074     18.38299     15.35797         0.016002      0.040214      0.015716
Au     14.84602     16.95623     16.85194        -0.016392      0.015925      0.039851
Au     17.53517     15.83570     16.64301         0.025223     -0.003472      0.034099
Au     13.13823     15.56971     14.93120        -0.047103     -0.006692      0.008872
Au     14.19246     18.21916     14.30108        -0.025378      0.033981     -0.003323
Au     15.20332     14.09626     16.37854        -0.009643     -0.030265      0.032322
Au     17.48883     13.75529     14.59189         0.025378     -0.033981      0.003323
