13
# total energy = -29.31211008 eVAu     15.64909     16.29547     14.03943         0.032931      0.135977     -0.050535
Au     13.71782     15.43914     12.23788         0.006465      0.006339      0.004158
Au     17.58155     15.80099     12.11749         0.087770     -0.148197      0.071426
Au     13.39902     12.99657     13.57303        -0.154526     -0.252703     -0.014060
Au     17.89463     14.16596     14.30433        -0.267373      0.033377     -0.016046
Au     15.83154     13.63745     12.51434         0.199592     -0.009271     -0.044866
Au     16.38662     18.13901     16.09640         0.086051      0.014004      0.005377
Au     14.59404     16.04292     16.95008         0.010468     -0.123889     -0.240442
Au     17.26212     15.49331     16.62101        -0.042855      0.046700     -0.086841
Au     12.86414     15.32470     14.89281        -0.044162      0.132235      0.152403
Au     18.37978     17.00535     14.49830         0.012172      0.057598      0.066628
Au     13.76227     17.97344     15.17958        -0.027233     -0.085464      0.165584
Au     15.29190     13.70569     15.43148         0.100701      0.193293     -0.012785
