13
# total energy = -30.37766079 eVAu     13.05864     15.59320     12.17829        -0.007949     -0.008872     -0.009219
Au     15.62047     16.79021     12.97910        -0.014689      0.002318      0.008590
Au     11.52955     15.14662     14.38998        -0.002044      0.002404      0.003976
Au     14.35604     14.16409     14.11115        -0.000633      0.020456     -0.002465
Au     17.08440     14.46030     13.52036         0.012736      0.000238     -0.000641
Au     15.43783     14.56547     11.33531         0.006045      0.001561     -0.002679
Au     16.05017     14.83661     16.14956        -0.000502      0.003695      0.002242
Au     15.97278     17.67170     15.51128        -0.004399     -0.017225      0.001582
Au     14.80289     16.71446     17.92502        -0.015848     -0.006680     -0.000548
Au     17.51881     16.70457     17.67120         0.012952      0.009339      0.017138
Au     18.37090     16.18436     15.13304         0.004572     -0.008553     -0.015107
Au     13.46748     17.11057     14.66073         0.012640     -0.001613     -0.012597
Au     13.23141     15.03564     16.53222        -0.002882      0.002935      0.009729
