13
# total energy = -26.80290854 eVAu     17.48944     17.09219     13.86969        -0.607628     -0.374237      0.299671
Au     11.56082     15.00997     13.86969         0.607628      0.374237      0.299671
Au     15.43929     19.01539     13.74274        -0.299671     -0.607628      0.374237
Au     13.61097     13.08677     13.74274         0.299671      0.607628      0.374237
Au     15.56624     16.96524     11.81951        -0.374237     -0.299671      0.607628
Au     13.48402     15.13692     11.81951         0.374237      0.299671      0.607628
Au     11.56082     17.09219     15.69798         0.607628     -0.374237     -0.299671
Au     17.48944     15.00997     15.69798        -0.607628      0.374237     -0.299671
Au     15.43929     13.08677     15.82496        -0.299671      0.607628     -0.374237
Au     13.61097     19.01539     15.82496         0.299671     -0.607628     -0.374237
Au     13.48402     16.96524     17.74816         0.374237     -0.299671     -0.607628
Au     15.56624     15.13692     17.74816        -0.374237      0.299671     -0.607628
Au     14.52513     16.05108     14.78385         0.000000      0.000000     -0.000000
