13
# total energy = -28.08958253 eVAu     15.85179     14.74933     12.12092         0.087368      0.030165     -0.033095
Au     12.45255     16.56689     12.12092        -0.087368     -0.030165     -0.033095
Au     15.06095     17.35773     12.12092        -0.030165      0.087368     -0.033095
Au     13.24339     13.95849     12.12092         0.030165     -0.087368     -0.033095
Au     15.85179     16.56689     17.08405         0.087368     -0.030165      0.033095
Au     13.24339     17.35773     17.08405         0.030165      0.087368      0.033095
Au     15.06095     13.95849     17.08405        -0.030165     -0.087368      0.033095
Au     12.45255     14.74933     17.08405        -0.087368      0.030165      0.033095
Au     14.15217     15.65811     14.60247         0.000000     -0.000000      0.000000
Au     12.26189     17.54839     14.60247        -0.003600      0.003600      0.000000
Au     16.04245     13.76783     14.60247         0.003600     -0.003600      0.000000
Au     12.26189     13.76783     14.60247        -0.003600     -0.003600      0.000000
Au     16.04245     17.54839     14.60247         0.003600      0.003600     -0.000000
