13
# total energy = -28.59372137 eVAu     14.49319     15.92319     11.78992         0.157452     -0.061630     -0.103662
Au     12.16245     15.89386     13.23993        -0.381093     -0.026008     -0.535218
Au     15.57415     13.46003     13.03702        -0.251749      0.256144     -0.075387
Au     13.73363     18.22986     13.44225        -0.070608     -0.009891     -0.151477
Au     12.88752     13.26669     14.33548         0.331570     -0.823323     -0.830616
Au     16.89211     16.03388     13.33239         0.796631     -0.762483     -1.328441
Au     16.84524     15.34268     15.93891         0.381093      0.026008      0.535218
Au     13.43351     17.77660     16.14176         0.251749     -0.256144      0.075387
Au     14.51441     15.31344     17.38901        -0.157452      0.061630      0.103662
Au     14.50386     15.61830     14.58942         0.000000      0.000000      0.000000
Au     15.27409     13.00674     15.73662         0.070608      0.009891      0.151477
Au     16.12029     17.96988     14.84336        -0.331570      0.823323      0.830616
Au     12.11558     15.20269     15.84642        -0.796631      0.762483      1.328441
