13
# total energy = -22.96466522 eVAu     15.59084     13.94217     13.61736        -0.380397      0.555315      0.497598
Au     14.78005     18.70689     13.61736         0.380397     -0.555315      0.497598
Au     17.46657     15.91915     13.51614        -0.497598      0.380397      0.555315
Au     12.90429     16.72991     13.51614         0.497598     -0.380397      0.555315
Au     12.80307     18.60567     15.49312         0.555315     -0.497598      0.380397
Au     17.56779     14.04339     15.49312        -0.555315      0.497598      0.380397
Au     14.78005     13.94217     18.17964         0.380397      0.555315     -0.497598
Au     15.59084     18.70689     18.17964        -0.380397     -0.555315     -0.497598
Au     17.46657     16.72991     18.28086        -0.497598     -0.380397     -0.555315
Au     12.90429     15.91915     18.28086         0.497598      0.380397     -0.555315
Au     17.56779     18.60567     16.30388        -0.555315     -0.497598     -0.380397
Au     12.80307     14.04339     16.30388         0.555315      0.497598     -0.380397
Au     15.18543     16.32453     15.89850         0.000000     -0.000000     -0.000000
