13
# total energy = -27.45363418 eVAu     16.03019     15.20458     11.77349        -0.170933      0.170933     -0.052924
Au     14.15419     17.08061     11.77349         0.170933     -0.170933     -0.052924
Au     17.95276     15.20458     13.69606         0.052924      0.170933      0.170933
Au     12.23162     17.08061     13.69606        -0.052924     -0.170933      0.170933
Au     14.15419     19.00318     13.69606         0.170933      0.052924      0.170933
Au     16.03019     13.28204     13.69606        -0.170933     -0.052924      0.170933
Au     15.09219     16.14261     14.63406         0.000000     -0.000000     -0.000000
Au     14.15419     15.20458     17.49463         0.170933      0.170933      0.052924
Au     16.03019     17.08061     17.49463        -0.170933     -0.170933      0.052924
Au     17.95276     17.08061     15.57206         0.052924     -0.170933     -0.170933
Au     12.23162     15.20458     15.57206        -0.052924      0.170933     -0.170933
Au     16.03019     19.00318     15.57206        -0.170933      0.052924     -0.170933
Au     14.15419     13.28204     15.57206         0.170933     -0.052924     -0.170933
