13
# total energy = -29.88624775 eVAu     13.10758     16.48371     12.06233        -0.108565     -0.139188     -0.031617
Au     14.79922     17.22225     14.14259         0.066199      0.330495     -0.165407
Au     11.09053     15.25800     13.62489         0.221776      0.016509     -0.000279
Au     17.49456     16.44047     13.98668         0.083847     -0.118709      0.219061
Au     12.05476     17.76348     14.41879        -0.149432     -0.209513     -0.053892
Au     13.51464     13.94982     13.27706        -0.254669      0.067172     -0.024096
Au     15.66633     15.38484     12.23343        -0.106220      0.127508     -0.075976
Au     13.00584     15.35389     15.66423        -0.281451     -0.062746     -0.063325
Au     16.47748     17.89569     16.25547         0.064576     -0.087035      0.143381
Au     13.70974     17.96660     16.59850         0.150473      0.094798     -0.033888
Au     17.73298     15.37762     16.56565        -0.202432      0.079609     -0.047543
Au     15.10683     15.69336     17.41006         0.262409     -0.023744      0.002449
Au     15.64920     14.45413     14.94044         0.253489     -0.075157      0.131133
