13
# total energy = -26.90783909 eVAu     17.47780     17.08944     13.87250        -0.544986     -0.372815      0.307900
Au     11.57246     15.01272     13.87250         0.544986      0.372815      0.307900
Au     15.43648     19.00375     13.74549        -0.307900     -0.544986      0.372815
Au     13.61378     13.09841     13.74549         0.307900      0.544986      0.372815
Au     15.56349     16.96243     11.83115        -0.372815     -0.307900      0.544986
Au     13.48677     15.13973     11.83115         0.372815      0.307900      0.544986
Au     11.57246     17.08944     15.69517         0.544986     -0.372815     -0.307900
Au     17.47780     15.01272     15.69517        -0.544986      0.372815     -0.307900
Au     15.43648     13.09841     15.82221        -0.307900      0.544986     -0.372815
Au     13.61378     19.00375     15.82221         0.307900     -0.544986     -0.372815
Au     13.48677     16.96243     17.73652         0.372815     -0.307900     -0.544986
Au     15.56349     15.13973     17.73652        -0.372815      0.307900     -0.544986
Au     14.52513     16.05108     14.78385         0.000000     -0.000000      0.000000
