13
# total energy = -30.33877056 eVAu     13.16262     15.84581     12.26416        -0.053000     -0.074728     -0.054544
Au     15.75718     16.70968     13.07184        -0.041688      0.061147      0.102846
Au     11.57574     15.10169     14.36284        -0.084268     -0.023738     -0.020049
Au     14.34797     14.14232     14.10559        -0.021620      0.020076     -0.034750
Au     17.08211     14.28920     13.51610         0.037361      0.008106      0.045358
Au     15.39258     14.53454     11.37859        -0.004374     -0.035304     -0.082163
Au     16.04877     14.85548     16.14430        -0.054475     -0.033320     -0.064724
Au     16.00012     17.83229     15.51473        -0.037252      0.002905     -0.049292
Au     14.70778     16.76425     17.74666         0.003394      0.034052      0.100318
Au     17.48598     16.75110     17.61997         0.002763     -0.025104      0.009778
Au     18.23179     16.23958     14.99039         0.099672      0.018373      0.023066
Au     13.51155     17.04343     14.82823         0.117518      0.038791     -0.024295
Au     13.19718     14.86843     16.55383         0.035969      0.008744      0.048451
