13
# total energy = -29.22424391 eVAu     15.63982     16.23914     14.06832         0.048660      0.282969     -0.143137
Au     13.72273     15.46437     12.22623        -0.025180     -0.135860      0.064792
Au     17.54295     15.82104     12.09920         0.198434     -0.102917      0.096243
Au     13.38715     12.98740     13.56470         0.061804      0.053868      0.039021
Au     17.90459     14.15182     14.31792        -0.050134      0.077441     -0.071499
Au     15.86743     13.67615     12.53938        -0.187258     -0.197046     -0.127336
Au     16.37616     18.11619     16.07805         0.049727      0.113005      0.095111
Au     14.59690     16.03299     16.96928        -0.013605      0.055967     -0.100685
Au     17.24941     15.47840     16.61573         0.065158      0.079255      0.025063
Au     12.90635     15.35995     14.91306        -0.214641     -0.181849     -0.106478
Au     18.35189     16.99260     14.49381         0.142299      0.060564      0.021984
Au     13.75973     17.97259     15.13232         0.015092      0.002886      0.243617
Au     15.30940     13.72735     15.43815        -0.090356     -0.108282     -0.036696
