13
# total energy = -30.14724265 eVAu     11.93227     16.07343     12.92106         0.005458     -0.003140      0.012443
Au     16.44121     17.04138     13.32328        -0.001175      0.011647     -0.020153
Au     13.84544     17.69255     14.02740        -0.016837     -0.017005      0.039998
Au     12.42954     13.36773     13.40036         0.005920      0.011164      0.001555
Au     16.94597     14.43320     14.12558         0.026890     -0.003144     -0.004463
Au     14.56634     15.05575     12.79959         0.002505     -0.012270     -0.027262
Au     15.62552     15.16631     16.48073         0.011802      0.043854      0.046049
Au     16.04267     18.77009     15.37456        -0.010110     -0.021992      0.021948
Au     14.01206     17.37717     16.83878        -0.000635      0.020067     -0.013735
Au     16.58006     17.54350     17.81872        -0.003543     -0.006067     -0.013597
Au     12.99314     15.29606     15.38760         0.005633     -0.001808     -0.033436
Au     17.94356     16.48933     15.68211         0.009698     -0.008398     -0.003342
Au     14.65775     13.05855     14.90405        -0.035607     -0.012909     -0.006005
