13
# total energy = -29.03106938 eVAu     14.77862     17.12634     11.78757        -0.171200      0.034837      0.012334
Au     15.61146     19.51324     13.53067         0.201265      0.072792     -0.109375
Au     17.20345     17.31198     13.08071        -0.056751     -0.208850      0.230271
Au     13.28516     18.05123     13.91278         0.098202     -0.171732      0.217810
Au     13.13704     15.36980     12.98291         0.052627      0.301388     -0.158458
Au     16.10673     14.68036     13.26747        -0.121337      0.362537      0.077113
Au     15.33149     16.35968     15.20956         0.218071     -0.264023     -0.023738
Au     17.20689     18.84925     15.55598        -0.156234      0.018853     -0.196178
Au     14.62360     18.37821     16.73730        -0.132544     -0.049603     -0.121014
Au     17.38010     17.22411     17.63347        -0.150031      0.125767      0.082631
Au     12.71068     16.24741     15.87247         0.099664      0.078522     -0.001903
Au     13.84349     13.77470     14.91984         0.109991     -0.190231      0.107355
Au     18.06077     16.01102     15.29825         0.008277     -0.110255     -0.116849
