13
# total energy = -25.43371746 eVAu     15.04339     16.27280     12.73955         0.448260      1.184010     -3.304036
Au     12.64178     15.01043     13.48548        -3.081074      0.509477     -1.906675
Au     14.77530     13.61448     13.24454         1.303658     -2.413474     -1.899101
Au     13.27622     17.68067     14.33405        -1.068072      1.450752     -0.408894
Au     16.06488     17.71829     14.77082         1.105155      2.116404     -0.592989
Au     17.12256     15.15703     14.09500         1.789855     -0.535824     -0.585460
Au     16.56517     15.91552     16.67847         3.081074     -0.509477      1.906675
Au     14.43165     17.31144     16.91941        -1.303658      2.413474      1.899101
Au     14.16353     14.65312     17.42437        -0.448260     -1.184010      3.304036
Au     14.60346     15.46296     15.08196        -0.000000     -0.000000     -0.000000
Au     15.93073     13.24528     15.82987         1.068072     -1.450752      0.408894
Au     13.14207     13.20763     15.39313        -1.105155     -2.116404      0.592989
Au     12.08439     15.76889     16.06895        -1.789855      0.535824      0.585460
