13
# total energy = -29.74108168 eVAu     14.38688     16.00161     13.54126         0.042135      0.154163     -0.120923
Au     11.76970     16.70570     12.82446        -0.176925     -0.084680      0.010709
Au     13.36686     14.95527     11.14865        -0.120528     -0.148928     -0.049497
Au     11.09534     14.00592     12.48868         0.013383     -0.009554      0.023808
Au     17.18357     15.96063     13.73631         0.132227     -0.082471      0.121590
Au     13.57280     13.12363     13.33920        -0.055135      0.018132     -0.049152
Au     15.87463     14.18511     12.05289        -0.035282      0.110875      0.010319
Au     15.58633     17.71103     15.41199         0.075030     -0.019425      0.181120
Au     14.26286     15.40646     16.47668         0.068391      0.031838      0.010585
Au     17.02195     15.56681     16.50684        -0.020911     -0.018833     -0.001518
Au     12.82169     17.53066     15.25624         0.064354     -0.001072     -0.096358
Au     12.02719     14.81760     14.96092        -0.040464      0.002506     -0.064658
Au     15.80840     13.71264     14.85490         0.053726      0.047448      0.023974
