13
# total energy = -26.63089410 eVAu     13.87080     18.04609     14.61501         0.264855      0.252195      0.085458
Au     17.90275     15.85242     14.61462         0.013924     -1.041002      0.096830
Au     13.98681     13.42981     14.61344        -0.846260      0.083262      0.087476
Au     14.04786     10.96135     14.27784         0.221890     -0.793417     -0.062190
Au     11.68142     19.19923     14.27968        -0.727857      0.169420     -0.051662
Au     20.01183     17.13205     14.27051         0.589093      0.564819     -0.065444
Au     16.61580     13.47164     14.65281        -0.264855     -0.252195     -0.085458
Au     12.58382     15.66531     14.65320        -0.013924      1.041002     -0.096830
Au     16.49976     18.08792     14.65438         0.846260     -0.083262     -0.087476
Au     16.43874     20.55638     14.98998        -0.221890      0.793417      0.062190
Au     18.80518     12.31850     14.98814         0.727857     -0.169420      0.051662
Au     10.47477     14.38568     14.99731        -0.589093     -0.564819      0.065444
Au     15.24330     15.75888     14.63391         0.000000      0.000000      0.000000
