13
# total energy = -29.87702788 eVAu     15.09205     16.55457     14.06758         0.117796      0.006379     -0.064612
Au     12.52135     16.98786     13.12441         0.005108      0.009272      0.013302
Au     14.20512     15.22665     11.78175         0.075002     -0.046784      0.152382
Au     14.27785     13.61821     14.09665        -0.016492      0.045909     -0.215586
Au     16.62013     14.36440     12.92456         0.023492      0.171241      0.105673
Au     15.98235     17.71786     16.46884        -0.061567     -0.086315     -0.156878
Au     14.03151     16.44775     17.80214        -0.083080     -0.170454      0.183940
Au     16.54986     15.15692     17.79481         0.051525      0.163395     -0.061894
Au     12.60165     15.35642     15.37518        -0.013680     -0.131356     -0.004875
Au     17.64566     16.01426     15.16395        -0.195232      0.094056     -0.122862
Au     13.16002     17.98002     15.66665         0.151321      0.188589     -0.025693
Au     14.38723     13.83868     16.78784        -0.026051      0.032256      0.164563
Au     16.88797     13.48732     15.56671        -0.028142     -0.276187      0.032541
