13
# total energy = -29.95611204 eVAu     15.13373     16.67790     13.93524        -0.007376     -0.020616     -0.015508
Au     12.52718     16.99520     13.14405        -0.022589     -0.006959     -0.003108
Au     14.22274     15.21870     11.79567         0.021378     -0.031824      0.013030
Au     14.28214     13.63097     14.08959         0.071370      0.053319     -0.023463
Au     16.64762     14.40995     12.97003        -0.022413     -0.033230     -0.019694
Au     15.88958     17.66131     16.43123         0.046630     -0.046143      0.006936
Au     13.99092     16.39279     17.88973        -0.041660     -0.012227      0.022035
Au     16.58794     15.21407     17.76475         0.011751      0.042389     -0.042359
Au     12.61996     15.34529     15.39308         0.027895      0.061248     -0.001154
Au     17.55007     15.97281     15.11752        -0.035631     -0.021176      0.056712
Au     13.22545     17.99046     15.66362        -0.072497      0.029372      0.026070
Au     14.40719     13.85461     16.80942         0.017858      0.019215      0.012689
Au     16.87822     13.38686     15.61715         0.005283     -0.033368     -0.032186
