13
# total energy = -29.91948360 eVAu     14.57557     16.69881     12.99192        -0.010466     -0.034735      0.027280
Au     11.72154     16.55759     12.79807         0.022174      0.013985     -0.005742
Au     13.23259     14.90081     11.21099         0.012268      0.021651     -0.000487
Au     11.02328     13.78684     12.65032        -0.010973      0.033995     -0.047103
Au     17.18720     15.94325     13.89175        -0.008724      0.014862     -0.014994
Au     13.57654     13.12223     13.37337        -0.009818     -0.010341      0.013594
Au     15.78199     14.36959     12.11648        -0.013344     -0.015952      0.027580
Au     15.67629     17.59924     15.47927        -0.002637      0.010465     -0.024169
Au     14.25053     15.37616     16.46904        -0.007373     -0.019630      0.006087
Au     16.97652     15.35440     16.68573         0.035089      0.047439     -0.017280
Au     12.95005     17.47615     15.09016        -0.002708     -0.037747      0.008929
Au     12.04909     14.79542     14.97629         0.004210     -0.012999      0.011622
Au     15.77698     13.70257     14.86562        -0.007697     -0.010992      0.014681
