13
# total energy = -26.92208494 eVAu     17.47614     17.08905     13.87290        -0.533987     -0.372258      0.308736
Au     11.57412     15.01311     13.87290         0.533987      0.372258      0.308736
Au     15.43608     19.00209     13.74588        -0.308736     -0.533987      0.372258
Au     13.61418     13.10007     13.74588         0.308736      0.533987      0.372258
Au     15.56310     16.96203     11.83281        -0.372258     -0.308736      0.533987
Au     13.48716     15.14013     11.83281         0.372258      0.308736      0.533987
Au     11.57412     17.08905     15.69477         0.533987     -0.372258     -0.308736
Au     17.47614     15.01311     15.69477        -0.533987      0.372258     -0.308736
Au     15.43608     13.10007     15.82182        -0.308736      0.533987     -0.372258
Au     13.61418     19.00209     15.82182         0.308736     -0.533987     -0.372258
Au     13.48716     16.96203     17.73486         0.372258     -0.308736     -0.533987
Au     15.56310     15.14013     17.73486        -0.372258      0.308736     -0.533987
Au     14.52513     16.05108     14.78385        -0.000000      0.000000      0.000000
