13
# total energy = -28.28929781 eVAu     16.08797     15.03717     12.30100        -0.394031      0.291601      0.001033
Au     12.21637     16.27905     12.30100         0.394031     -0.291601      0.001033
Au     14.77311     17.59391     12.30100        -0.291601     -0.394031      0.001033
Au     13.53123     13.72231     12.30100         0.291601      0.394031      0.001033
Au     16.08797     16.27905     16.90397        -0.394031     -0.291601     -0.001033
Au     13.53123     17.59391     16.90397         0.291601     -0.394031     -0.001033
Au     14.77311     13.72231     16.90397        -0.291601      0.394031     -0.001033
Au     12.21637     15.03717     16.90397         0.394031      0.291601     -0.001033
Au     14.15217     15.65811     14.60247        -0.000000      0.000000     -0.000000
Au     12.20927     17.60101     14.60247         0.090237     -0.090237      0.000000
Au     16.09507     13.71521     14.60247        -0.090237      0.090237      0.000000
Au     12.20927     13.71521     14.60247         0.090237      0.090237     -0.000000
Au     16.09507     17.60101     14.60247        -0.090237     -0.090237     -0.000000
