13
# total energy = -30.18604638 eVAu     12.91918     13.78943     12.56375         0.321583     -0.186999     -0.083414
Au     16.53681     16.62333     14.03176         0.029461      0.117819     -0.128978
Au     13.81194     16.98044     13.59051         0.191102     -0.189656      0.353633
Au     15.59295     12.49282     12.08954        -0.084398      0.116634      0.067510
Au     17.64923     14.01656     13.21894        -0.168561      0.069564     -0.007747
Au     15.26048     15.21951     12.10197        -0.137946     -0.022987     -0.097598
Au     14.91389     13.56835     14.53193        -0.082700      0.069296      0.027389
Au     17.42153     17.06498     16.57969        -0.279796      0.122111      0.181130
Au     15.05207     18.39155     15.71476         0.112909     -0.300971      0.020211
Au     17.10414     14.22937     15.96696         0.049259      0.245199      0.026426
Au     12.49959     14.90995     14.99283         0.164904      0.235275      0.090070
Au     19.08686     15.86778     14.76715         0.055986     -0.262843     -0.129866
Au     14.82937     15.72482     16.38187        -0.171803     -0.012442     -0.318766
