13
# total energy = -28.04957589 eVAu     14.24410     15.48849     11.81974         0.014934      0.047723     -0.001012
Au     11.97695     16.13944     13.53622         0.019521     -0.038172     -0.027595
Au     15.87547     13.57711     13.29602        -0.017275     -0.030435     -0.029017
Au     14.19328     18.01942     13.20640        -0.038722     -0.016548      0.028053
Au     13.03021     13.43994     13.67444        -0.007217     -0.003291      0.047779
Au     16.72007     16.34587     13.06658         0.019270     -0.032001      0.018364
Au     17.03074     15.09710     15.64262        -0.019521      0.038172      0.027595
Au     13.13219     17.65952     15.88276         0.017275      0.030435      0.029017
Au     14.76350     15.74814     17.35919        -0.014934     -0.047723      0.001012
Au     14.50386     15.61830     14.58942         0.000000      0.000000     -0.000000
Au     14.81444     13.21718     15.97247         0.038722      0.016548     -0.028053
Au     15.97760     17.79663     15.50440         0.007217      0.003291     -0.047779
Au     12.28762     14.89070     16.11223        -0.019270      0.032001     -0.018364
