13
# total energy = -29.84917184 eVAu     12.86469     14.05003     12.68159         0.441802      0.131196      0.224817
Au     16.62576     16.83357     13.72700        -0.105575     -0.224397      0.028808
Au     13.83663     16.73918     13.06372         0.066253     -0.019082      0.070953
Au     15.31409     12.56601     12.25424        -0.092312      0.068696      0.094664
Au     17.68115     14.01520     13.24703        -0.348173      0.001545      0.106094
Au     15.57318     15.17209     11.74922         0.127084      0.131522      0.082119
Au     15.02135     14.19739     14.51721        -0.174252     -0.351719     -0.453315
Au     17.19134     17.05510     16.48133         0.050329      0.323916      0.075636
Au     14.62898     17.45716     15.65183        -0.110262      0.281309     -0.153211
Au     17.28236     14.26857     16.11075         0.338291     -0.315957     -0.263466
Au     12.62775     15.48118     15.18220         0.096593     -0.123322     -0.004340
Au     19.02898     15.86197     14.80690         0.254552      0.082094     -0.179714
Au     15.00179     15.18144     17.05864        -0.544329      0.014198      0.370954
