13
# total energy = -28.58570018 eVAu     14.56097     17.08903     11.81343         0.187130     -0.011401      0.049560
Au     15.79867     19.40270     13.69252        -0.255158      0.233705      0.002822
Au     17.42702     17.37791     12.97164        -0.059407     -0.331945      0.088080
Au     12.94873     18.00183     13.81302         0.121957     -0.017939      0.058597
Au     13.25811     15.17468     13.25014        -0.040936      0.229773     -0.104880
Au     16.17385     14.87747     13.02534         0.039939      0.069393      0.048065
Au     15.28563     16.72243     14.80741        -0.058523     -0.128372      0.127249
Au     17.37594     18.64918     15.71845        -0.137346      0.033589     -0.170602
Au     14.54615     18.55141     16.60164         0.064822     -0.054987      0.056072
Au     16.79028     16.84648     17.58068         0.079417      0.063376     -0.099353
Au     12.79096     16.45709     16.05405         0.141024     -0.063173     -0.106932
Au     14.46330     13.96491     15.24611        -0.149883     -0.092181      0.018878
Au     17.85987     15.78221     15.21454         0.066964      0.070162      0.032445
