13
# total energy = -29.92581830 eVAu     14.57700     16.70299     12.98878        -0.002101     -0.012018      0.009563
Au     11.73410     16.56623     12.79016        -0.008000      0.015776      0.009627
Au     13.23817     14.91639     11.20914         0.017343     -0.009864     -0.011329
Au     11.02000     13.80182     12.63235         0.002948      0.017150     -0.013582
Au     17.18223     15.95562     13.88310         0.009235     -0.010128     -0.015585
Au     13.56252     13.11585     13.38067         0.025696     -0.008439      0.008001
Au     15.77043     14.35520     12.14033         0.013373     -0.023608     -0.013077
Au     15.67662     17.60579     15.46337        -0.018372      0.012442      0.006371
Au     14.25821     15.36313     16.47636        -0.027086      0.000944      0.001647
Au     16.98855     15.37343     16.67715         0.006681      0.017704     -0.010952
Au     12.94933     17.44693     15.10017        -0.014149      0.014402      0.022577
Au     12.04488     14.78011     14.97544         0.005645      0.005306      0.024193
Au     15.77615     13.69959     14.88202        -0.011213     -0.019668     -0.017455
