13
# total energy = -29.66510551 eVAu     15.80434     17.39384     13.45542         0.109782     -0.016266      0.154430
Au     14.12691     15.48760     12.70810         0.110246      0.064603      0.085210
Au     17.53939     15.48231     12.36013        -0.212495      0.081568      0.026584
Au     13.22069     13.02393     13.33137        -0.020236     -0.119293      0.060195
Au     17.84434     13.85156     14.49539         0.012058      0.021617     -0.056368
Au     15.91085     13.19764     12.53107         0.035700      0.021423      0.006548
Au     16.35928     18.27998     16.04486         0.047980      0.097996     -0.017947
Au     14.56923     15.71622     17.11815        -0.029714      0.045892     -0.015555
Au     17.21878     15.71388     16.41117        -0.174660     -0.194496     -0.082547
Au     12.62412     15.07173     15.16383         0.015053      0.038568      0.015700
Au     18.41838     17.10665     14.39360         0.046091      0.100863     -0.015941
Au     13.77605     17.62872     15.37988         0.062868     -0.076906     -0.200178
Au     15.20215     14.06593     15.06319        -0.002672     -0.065568      0.039870
