13
# total energy = -29.71486987 eVAu     15.88705     17.59159     13.41984         0.001310     -0.026062      0.029314
Au     14.27019     15.54232     12.84405        -0.065179      0.035965     -0.115482
Au     17.37289     15.48310     12.42668        -0.138591      0.077410      0.031913
Au     13.22624     13.04001     13.32801         0.092198      0.105243      0.041094
Au     17.86478     13.77344     14.49011         0.040802      0.022162     -0.073873
Au     15.92724     13.10769     12.53353        -0.086166      0.037995      0.047136
Au     16.35788     18.32465     16.03999         0.054016      0.005751      0.069771
Au     14.52061     15.67728     17.16875        -0.040032      0.066261     -0.007858
Au     17.13166     15.69718     16.31381         0.011919      0.131367     -0.079275
Au     12.57419     15.02314     15.21724         0.060199     -0.039176     -0.080450
Au     18.44067     17.13731     14.36974         0.065351      0.001546      0.070912
Au     13.83097     17.50499     15.26875         0.067611     -0.034680     -0.129627
Au     15.21013     14.11729     15.03565        -0.063437     -0.383782      0.196426
