13
# total energy = -29.40629754 eVAu     15.66858     16.46158     13.94633         0.093284      0.187113     -0.011864
Au     13.73807     15.38819     12.29889         0.057962      0.021277      0.056088
Au     17.70295     15.72789     12.13810        -0.023624     -0.003580      0.261178
Au     13.37046     12.91525     13.59492         0.031097      0.040153      0.011664
Au     17.75039     14.16261     14.33498         0.231534     -0.023899     -0.216479
Au     15.83028     13.56748     12.45793         0.022515      0.014708      0.041255
Au     16.44274     18.19050     16.11829        -0.207656     -0.076813     -0.146720
Au     14.61977     15.94246     16.84546        -0.198635      0.219250      0.115350
Au     17.26885     15.53997     16.59660         0.181982      0.116612      0.143222
Au     12.77778     15.30378     14.90436         0.045886      0.003841      0.028500
Au     18.42651     17.06212     14.52787        -0.160045     -0.101598     -0.182717
Au     13.73396     17.98514     15.31929         0.216295     -0.144737      0.078290
Au     15.28417     13.77303     15.37315        -0.290596     -0.252325     -0.177767
