13
# total energy = -28.18550241 eVAu     15.93829     14.83380     12.18225        -0.086347      0.164240     -0.043263
Au     12.36605     16.48242     12.18225         0.086347     -0.164240     -0.043263
Au     14.97648     17.44423     12.18225        -0.164240     -0.086347     -0.043263
Au     13.32786     13.87199     12.18225         0.164240      0.086347     -0.043263
Au     15.93829     16.48242     17.02272        -0.086347     -0.164240      0.043263
Au     13.32786     17.44423     17.02272         0.164240     -0.086347      0.043263
Au     14.97648     13.87199     17.02272        -0.164240      0.086347      0.043263
Au     12.36605     14.83380     17.02272         0.086347      0.164240      0.043263
Au     14.15217     15.65811     14.60247         0.000000      0.000000      0.000000
Au     12.24471     17.56557     14.60247        -0.006555      0.006555      0.000000
Au     16.05963     13.75065     14.60247         0.006555     -0.006555      0.000000
Au     12.24471     13.75065     14.60247        -0.006555     -0.006555      0.000000
Au     16.05963     17.56557     14.60247         0.006555      0.006555      0.000000
