13
# total energy = -28.66774207 eVAu     14.60662     17.08673     11.79060         0.116092      0.033646      0.218714
Au     15.77398     19.42551     13.65457        -0.110471     -0.018061      0.111256
Au     17.37519     17.33983     12.98002        -0.127083      0.041867      0.093061
Au     12.99156     18.01280     13.84065         0.259256      0.006354     -0.101702
Au     13.20951     15.20663     13.16460         0.149662      0.160403      0.101163
Au     16.18445     14.87764     13.09216        -0.130510     -0.218185     -0.041823
Au     15.25899     16.64883     14.88328         0.174581     -0.024765      0.107986
Au     17.37183     18.71874     15.71308        -0.315485     -0.137569     -0.268726
Au     14.56785     18.51913     16.62619         0.047416     -0.080983      0.043641
Au     16.92819     16.91337     17.63022         0.052654      0.136016     -0.318924
Au     12.76167     16.41477     16.00808         0.100240     -0.090745      0.014134
Au     14.34364     13.90909     15.20269        -0.221008      0.051201     -0.193084
Au     17.90599     15.82427     15.20283         0.004655      0.140820      0.234302
