13
# total energy = -30.37669046 eVAu     13.05846     15.60299     12.17605        -0.019411     -0.007075     -0.021321
Au     15.62203     16.78432     12.99067         0.036672     -0.007404     -0.022280
Au     11.53577     15.14496     14.39130        -0.009546     -0.000552      0.005755
Au     14.35183     14.16741     14.10544         0.007688      0.004973      0.008612
Au     17.08925     14.44506     13.52255        -0.005955      0.025738     -0.002498
Au     15.43697     14.56480     11.34151         0.009385     -0.003057     -0.007710
Au     16.04456     14.84664     16.14051         0.012171     -0.009099      0.017171
Au     15.97769     17.68421     15.51559        -0.000582     -0.014140      0.001219
Au     14.79299     16.72321     17.91860         0.004269     -0.014803     -0.007554
Au     17.51553     16.69834     17.66793         0.005765      0.011177      0.006573
Au     18.36889     16.19160     15.12058        -0.011940     -0.012563      0.003232
Au     13.47719     17.10302     14.66664        -0.030337      0.004792      0.028414
Au     13.23020     15.02122     16.53988         0.001821      0.022015     -0.009613
