13
# total energy = -28.83027459 eVAu     14.97057     14.12517     13.54963         0.000000     -0.465947     -0.455136
Au     14.97057     18.20667     13.54963         0.000000      0.465947     -0.455136
Au     13.08214     16.16592     13.39731        -0.455136      0.000000     -0.465947
Au     16.85900     16.16592     13.39731         0.455136      0.000000     -0.465947
Au     14.97057     16.16592     15.43806         0.000000      0.000000     -0.000000
Au     14.97057     14.12517     17.32649         0.000000     -0.465947      0.455136
Au     14.97057     18.20667     17.32649         0.000000      0.465947      0.455136
Au     13.08214     16.16592     17.47881        -0.455136     -0.000000      0.465947
Au     16.85900     16.16592     17.47881         0.455136     -0.000000      0.465947
Au     12.92982     14.27749     15.43806        -0.465947     -0.455136      0.000000
Au     17.01132     14.27749     15.43806         0.465947     -0.455136     -0.000000
Au     12.92982     18.05435     15.43806        -0.465947      0.455136     -0.000000
Au     17.01132     18.05435     15.43806         0.465947      0.455136     -0.000000
