13
# total energy = -26.77964119 eVAu     14.27262     15.49782     11.95938        -0.529461     -0.223052     -2.143821
Au     12.08247     16.11201     13.59975        -1.617007      0.503662     -0.806778
Au     15.79641     13.70241     13.36125         1.462233     -1.919657     -0.983031
Au     14.21976     17.87316     13.27635        -0.205674      1.932304     -1.120177
Au     13.12290     13.55670     13.71471        -1.383304     -1.574465     -0.747209
Au     16.59504     16.28892     13.14504         1.819897      0.978831     -1.223122
Au     16.92522     15.12453     15.57909         1.617007     -0.503662      0.806778
Au     13.21125     17.53422     15.81753        -1.462233      1.919657      0.983031
Au     14.73498     15.73881     17.21955         0.529461      0.223052      2.143821
Au     14.50386     15.61830     14.58942        -0.000000      0.000000      0.000000
Au     14.78796     13.36344     15.90252         0.205674     -1.932304      1.120177
Au     15.88491     17.67987     15.46413         1.383304      1.574465      0.747209
Au     12.41265     14.94765     16.03377        -1.819897     -0.978831      1.223122
