13
# total energy = -28.07032295 eVAu     14.23746     15.48301     11.81700         0.013150      0.010740      0.006892
Au     11.97508     16.14546     13.54617         0.004875     -0.011988     -0.018584
Au     15.89352     13.57492     13.29596        -0.035866      0.005619      0.000844
Au     14.20610     18.00149     13.20195        -0.024564      0.033088      0.009415
Au     13.03103     13.45213     13.66508        -0.000568     -0.022297      0.018609
Au     16.71591     16.35393     13.06381         0.006672     -0.016236      0.006263
Au     17.03261     15.09108     15.63267        -0.004875      0.011988      0.018584
Au     13.11414     17.66171     15.88282         0.035866     -0.005619     -0.000844
Au     14.77014     15.75362     17.36193        -0.013150     -0.010740     -0.006892
Au     14.50386     15.61830     14.58942         0.000000      0.000000      0.000000
Au     14.80162     13.23511     15.97692         0.024564     -0.033088     -0.009415
Au     15.97678     17.78444     15.51376         0.000568      0.022297     -0.018609
Au     12.29178     14.88264     16.11500        -0.006672      0.016236     -0.006263
