13
# total energy = -27.34467463 eVAu     15.04221     15.99612     14.71412        -0.245961      0.633284     -0.227391
Au     12.73370     16.92328     13.27160        -1.519574      0.802131     -1.222282
Au     14.23909     15.27801     12.06554         0.579669     -0.517969     -1.692399
Au     14.24529     13.47134     13.95904        -0.752320     -1.081358      0.244242
Au     16.67683     14.60253     13.15647         0.553701      1.077228     -6.374813
Au     15.97733     17.83713     16.47973         0.811777      1.831373     -0.277075
Au     14.06369     16.37466     17.56978        -1.947594      0.894869      1.370198
Au     16.44628     15.44764     17.44739         1.855607     -1.578125      0.800283
Au     12.46626     15.33973     15.38995        -1.055268     -0.423940      0.063891
Au     17.72651     16.02257     15.07351         1.616740      1.515090      0.819639
Au     13.37298     17.96602     15.51203        -0.338225      1.681722      1.158610
Au     14.26386     13.90600     16.72163         0.273872     -1.647076      0.221551
Au     16.70871     13.58590     15.26027         0.167576     -3.187228      5.115547
