13
# total energy = -26.45360672 eVAu     13.68665     18.03543     14.60864         0.149820      0.055173     -0.052880
Au     17.98863     15.95781     14.60896         0.103248      0.000831     -0.073755
Au     14.04223     13.27075     14.61142        -0.044128      0.117477     -0.053687
Au     13.91578     10.71010     14.20693         0.131361      0.298216      0.079573
Au     11.53784     19.43656     14.21225         0.189716     -0.264711      0.078427
Au     20.28495     17.13729     14.20308        -0.436313     -0.090616      0.098220
Au     16.79995     13.48230     14.65918        -0.149820     -0.055173      0.052880
Au     12.49794     15.55992     14.65886        -0.103248     -0.000831      0.073755
Au     16.44434     18.24698     14.65640         0.044128     -0.117477      0.053687
Au     16.57082     20.80763     15.06089        -0.131361     -0.298216     -0.079573
Au     18.94876     12.08117     15.05557        -0.189716      0.264711     -0.078427
Au     10.20165     14.38044     15.06474         0.436313      0.090616     -0.098220
Au     15.24330     15.75888     14.63391         0.000000      0.000000      0.000000
