13
# total energy = -26.14154941 eVAu     13.57200     17.86235     14.39763         0.161564      0.076347      0.175349
Au     17.89903     16.15104     14.39880         0.020939     -0.148900      0.170142
Au     14.25544     13.26106     14.40596        -0.129558      0.093641      0.174717
Au     13.82423     10.76965     14.19668         0.019671     -0.233644     -0.019183
Au     11.63361     19.48795     14.20508        -0.211900      0.098362     -0.019839
Au     20.27541     17.02406     14.19726         0.167962      0.126700     -0.017554
Au     16.91460     13.65538     14.87019        -0.161564     -0.076347     -0.175349
Au     12.58754     15.36669     14.86902        -0.020939      0.148900     -0.170142
Au     16.23113     18.25667     14.86186         0.129558     -0.093641     -0.174717
Au     16.66237     20.74808     15.07114        -0.019671      0.233644      0.019183
Au     18.85299     12.02978     15.06274         0.211900     -0.098362      0.019839
Au     10.21119     14.49367     15.07056        -0.167962     -0.126700      0.017554
Au     15.24330     15.75888     14.63391         0.000000      0.000000      0.000000
