13
# total energy = -29.53945949 eVAu     15.72895     16.94937     13.67728        -0.116312     -0.056918     -0.109165
Au     13.87760     15.41735     12.45061         0.195018      0.110780      0.163551
Au     17.72202     15.56062     12.25452        -0.120741      0.107652     -0.060307
Au     13.23354     12.92981     13.41308         0.084745      0.029693      0.087275
Au     17.80750     14.03845     14.44083        -0.039162     -0.118781      0.049016
Au     15.88402     13.41784     12.53781        -0.036443     -0.079818     -0.120960
Au     16.39528     18.23908     16.02976        -0.003198      0.010717      0.104073
Au     14.63262     15.84454     16.98416        -0.026129     -0.124793      0.043543
Au     17.28482     15.61936     16.56061        -0.024705      0.046130     -0.064724
Au     12.75596     15.19815     15.04408        -0.145565     -0.018199     -0.037371
Au     18.38448     17.10734     14.43580         0.086357     -0.042495      0.029822
Au     13.73138     17.83155     15.45392         0.015964      0.032697     -0.167929
Au     15.17634     13.86654     15.17370         0.130171      0.103336      0.083177
