13
# total energy = -29.75416892 eVAu     15.03515     16.31290     14.33760         0.050966      0.226774     -0.409481
Au     12.51077     16.97874     13.12486         0.148174     -0.009547      0.115129
Au     14.21564     15.20424     11.81631         0.028978      0.109555      0.061418
Au     14.24382     13.59502     14.02779         0.139657     -0.139187      0.125843
Au     16.67344     14.41763     12.90630        -0.128360      0.088911      0.103429
Au     16.05870     17.75986     16.45923        -0.313371      0.183619      0.177548
Au     14.03258     16.44411     17.74336        -0.078032      0.035621      0.036559
Au     16.53758     15.22285     17.72129         0.092481     -0.038936     -0.114941
Au     12.56408     15.34161     15.33003        -0.069493      0.116791      0.145512
Au     17.70852     16.08266     15.18627         0.025484     -0.345254     -0.156516
Au     13.19077     18.06720     15.66842         0.090380     -0.259644     -0.082674
Au     14.33931     13.82187     16.80868         0.106701      0.010427     -0.169523
Au     16.85240     13.50222     15.49094        -0.093563      0.020872      0.167699
