13
# total energy = -29.89212687 eVAu     14.45041     16.23652     13.35633         0.026516      0.102808     -0.078520
Au     11.62539     16.61366     12.86252         0.069765     -0.034383     -0.028024
Au     13.27295     14.80763     11.13418        -0.013618      0.056709      0.056991
Au     11.01934     13.92489     12.50158         0.067098     -0.007267      0.071470
Au     17.27669     15.86212     13.84767        -0.068585      0.042808      0.022000
Au     13.57776     13.16519     13.34731        -0.018830     -0.039524     -0.025858
Au     15.84896     14.33752     12.03175         0.005011     -0.011517     -0.002899
Au     15.62866     17.66789     15.57620         0.014011     -0.051304     -0.064886
Au     14.26944     15.40793     16.43522         0.013860      0.012410      0.048224
Au     17.06258     15.51654     16.59769        -0.084138     -0.046261     -0.031608
Au     12.89851     17.56947     15.12663        -0.003324      0.002280      0.010116
Au     12.06273     14.82638     14.93775        -0.051923     -0.004394      0.006863
Au     15.78476     13.74730     14.84418         0.044157     -0.022364      0.016130
