13
# total energy = -29.95606282 eVAu     11.20514     16.83791     12.06649        -0.089424     -0.030663     -0.034758
Au     14.00644     16.45675     12.15201         0.001252      0.001255     -0.004984
Au     16.76066     15.83034     12.29969         0.076843     -0.061167     -0.028113
Au     12.23729     14.29731     12.39923         0.004658      0.020252      0.038310
Au     14.87996     13.81828     12.50999        -0.001420      0.020157      0.037565
Au     15.48402     17.33519     14.32479         0.004114      0.004285     -0.000228
Au     14.21818     18.62974     16.49781         0.000448      0.024431      0.098907
Au     12.34314     16.61177     16.70050         0.033692     -0.017926     -0.019941
Au     15.24383     16.08571     16.82170        -0.036323     -0.007338     -0.022850
Au     10.90983     15.75960     14.59206         0.037146     -0.015799     -0.014147
Au     12.76043     17.82890     14.21076        -0.004428      0.005276      0.000052
Au     13.58343     14.76017     14.89171         0.013199      0.058793     -0.031509
Au     16.45296     14.75342     14.82461        -0.039755     -0.001555     -0.018302
