13
# total energy = -29.96458981 eVAu     11.17628     16.82871     12.05513        -0.004591     -0.030696      0.017992
Au     14.00691     16.45796     12.15106         0.003527      0.021135      0.007702
Au     16.78565     15.81106     12.29043        -0.008906     -0.030325      0.016906
Au     12.23734     14.30404     12.41034        -0.002334      0.001648     -0.012778
Au     14.88105     13.82432     12.52106         0.003898      0.000629     -0.012901
Au     15.48445     17.33686     14.32409        -0.012390      0.011452     -0.014770
Au     14.21849     18.63770     16.52937        -0.005142     -0.032486      0.014869
Au     12.35405     16.60726     16.69553        -0.006096      0.010963      0.003557
Au     15.23237     16.08474     16.81587         0.009974      0.009785      0.005020
Au     10.92007     15.75473     14.58650        -0.009491      0.008752     -0.001730
Au     12.75987     17.83062     14.21021         0.016649      0.006996     -0.013441
Au     13.58667     14.77454     14.88396         0.002824      0.016101     -0.009373
Au     16.44212     14.75253     14.81779         0.012079      0.006045     -0.001053
