13
# total energy = -25.29827190 eVAu     14.68680     16.09098      9.90945         0.000000      0.000000     -0.553059
Au     13.62531     14.04641     11.23914        -0.031579     -0.060947      0.105997
Au     15.74829     18.13558     11.23914         0.031579      0.060947      0.105997
Au     16.73140     15.02949     11.23914         0.060947     -0.031579      0.105997
Au     12.64220     17.15250     11.23914        -0.060947      0.031579      0.105997
Au     14.68680     16.09098     12.74058         0.000000      0.000000     -0.001396
Au     14.68680     16.09098     20.72655         0.000000      0.000000      0.553059
Au     13.62531     14.04641     19.39686        -0.031579     -0.060947     -0.105997
Au     16.73140     15.02949     19.39686         0.060947     -0.031579     -0.105997
Au     15.74829     18.13558     19.39686         0.031579      0.060947     -0.105997
Au     12.64220     17.15250     19.39686        -0.060947      0.031579     -0.105997
Au     14.68680     16.09098     17.89542         0.000000      0.000000      0.001396
Au     14.68680     16.09098     15.31800         0.000000      0.000000      0.000000
