13
# total energy = -27.87399189 eVAu     14.80915     17.19111     11.95415        -0.209631     -0.024997     -0.386529
Au     15.44234     19.33400     13.75995         0.176864      0.600725     -0.130781
Au     17.48876     17.39394     13.03473         0.315651     -0.004381     -0.244346
Au     12.90078     18.00372     13.86236        -0.246176      0.183955     -0.134057
Au     13.29002     15.27003     13.40611        -0.097807     -0.166253     -0.054538
Au     16.11648     14.86106     12.87109         0.151060     -0.245442     -0.186784
Au     15.33278     16.78015     14.67738        -0.038771      0.064158     -0.059677
Au     17.41236     18.45090     15.63178         0.093336      0.226353      0.030967
Au     14.60546     18.78849     16.42309        -0.106054      0.179845      0.314617
Au     16.16774     16.57948     17.30125         0.156852     -0.078259      0.338453
Au     13.10662     16.41552     16.16835        -0.430388     -0.105133      0.279707
Au     14.87004     14.24982     15.47924        -0.066671     -0.430580      0.096992
Au     17.73693     15.57913     15.21951         0.301737     -0.199990      0.135975
