13
# total energy = -29.89531931 eVAu     15.98921     17.71961     13.49651        -0.015397     -0.072655      0.019062
Au     14.42837     15.53734     13.04262         0.000699     -0.002403     -0.024623
Au     17.26217     15.53196     12.49697        -0.120578      0.139952      0.081813
Au     13.24043     13.00700     13.40041        -0.037591      0.016086      0.007876
Au     17.89833     13.70905     14.38817         0.112700     -0.029224      0.075768
Au     15.88069     13.10365     12.58422        -0.027261     -0.082560      0.027252
Au     16.32961     18.47048     16.08632        -0.034293     -0.023460      0.003693
Au     14.48151     15.58707     17.08943         0.099120     -0.017878     -0.079172
Au     16.96006     15.79553     15.97354        -0.051315      0.005289     -0.034212
Au     12.54284     15.09764     15.08832        -0.018961      0.010912     -0.034999
Au     18.58612     17.18460     14.34628         0.007027     -0.000363      0.002867
Au     13.82689     17.53499     15.23167         0.074067      0.043175     -0.001325
Au     15.18829     13.74108     15.23170         0.011784      0.013127     -0.044000
