13
# total energy = -27.94974134 eVAu     14.79310     17.18977     11.92114        -0.184861     -0.103250     -0.003466
Au     15.45592     19.38214     13.75011         0.176129      0.160852      0.041161
Au     17.51488     17.39464     13.01427         0.044010     -0.092337      0.016934
Au     12.87897     18.02000     13.85161         0.033856     -0.035974     -0.083165
Au     13.28019     15.25518     13.40030         0.148871      0.027195      0.092888
Au     16.12895     14.83981     12.85535         0.025901      0.062485     -0.011797
Au     15.33018     16.78537     14.67408        -0.037583      0.049063     -0.018945
Au     17.42162     18.47115     15.63465        -0.168573     -0.004931     -0.095343
Au     14.59684     18.80391     16.44762         0.004145     -0.109132      0.108868
Au     16.17863     16.57272     17.32997         0.201875      0.061709     -0.007433
Au     13.07256     16.40696     16.19226        -0.124523      0.025960     -0.026116
Au     14.86511     14.21469     15.48785        -0.127921     -0.102171     -0.107341
Au     17.76251     15.56100     15.22978         0.008676      0.060530      0.093755
