13
# total energy = -30.14536321 eVAu     11.94009     16.07400     12.91496        -0.020024     -0.004366      0.003193
Au     16.44969     17.04363     13.33348        -0.020330     -0.017939     -0.036893
Au     13.85109     17.68483     14.02517        -0.012568     -0.008551      0.033924
Au     12.40443     13.36915     13.41904         0.006940      0.007493     -0.007081
Au     16.95895     14.43546     14.12977        -0.032996     -0.015809     -0.005269
Au     14.55859     15.05142     12.80104         0.062246      0.004287      0.000196
Au     15.62456     15.17481     16.47801         0.009976     -0.024437     -0.005363
Au     16.03872     18.77440     15.37742        -0.007916     -0.005485      0.014923
Au     14.01197     17.37388     16.83591        -0.041371      0.030697     -0.014775
Au     16.57889     17.54855     17.81360         0.016967      0.006936      0.029668
Au     12.99045     15.28876     15.39187         0.005876      0.005386     -0.016554
Au     17.94802     16.49150     15.68628         0.027972     -0.006761     -0.010666
Au     14.66006     13.05463     14.87725         0.005228      0.028549      0.014699
