13
# total energy = -28.75863671 eVAu     14.66042     17.08427     11.79852         0.154861      0.139237      0.097446
Au     15.73745     19.44799     13.63660        -0.097220     -0.070426     -0.013888
Au     17.31292     17.29673     13.00289        -0.109206      0.374759     -0.006129
Au     13.06339     18.01607     13.85696         0.221853      0.189768     -0.145412
Au     13.18270     15.26225     13.09403         0.118413     -0.032524      0.184976
Au     16.18379     14.85643     13.14676        -0.272804     -0.348716      0.046755
Au     15.23884     16.58879     14.97821         0.638347     -0.403157     -0.204882
Au     17.32562     18.76240     15.67905        -0.189154     -0.041911     -0.312433
Au     14.60029     18.47067     16.64722        -0.127520      0.193044      0.262126
Au     17.06672     16.99696     17.63127        -0.007716      0.041525     -0.136513
Au     12.75311     16.36697     15.95890        -0.144881     -0.155135      0.200521
Au     14.20425     13.86280     15.14057        -0.171078      0.089421     -0.251347
Au     17.94997     15.88501     15.21799        -0.013896      0.024115      0.278780
