13
# total energy = -25.37170393 eVAu     14.68680     16.09098      9.77826         0.000000     -0.000000     -0.026973
Au     13.63832     14.07173     11.21854         0.012700      0.024418     -0.003922
Au     15.73528     18.11026     11.21854        -0.012700     -0.024418     -0.003922
Au     16.70608     15.04250     11.21854        -0.024418      0.012700     -0.003922
Au     12.66752     17.13949     11.21854         0.024418     -0.012700     -0.003922
Au     14.68680     16.09098     12.72314         0.000000     -0.000000      0.039155
Au     14.68680     16.09098     20.85774         0.000000     -0.000000      0.026973
Au     13.63832     14.07173     19.41746         0.012700      0.024418      0.003922
Au     16.70608     15.04250     19.41746        -0.024418      0.012700      0.003922
Au     15.73528     18.11026     19.41746        -0.012700     -0.024418      0.003922
Au     12.66752     17.13949     19.41746         0.024418     -0.012700      0.003922
Au     14.68680     16.09098     17.91286         0.000000     -0.000000     -0.039155
Au     14.68680     16.09098     15.31800         0.000000     -0.000000      0.000000
