13
# total energy = -28.20281432 eVAu     15.02641     15.97548     14.74519         0.009310      0.555970     -0.514772
Au     12.74919     16.90573     13.29790        -1.309432      0.812527     -1.127711
Au     14.30180     15.27021     12.08148        -0.012712     -0.246986     -1.770208
Au     14.26725     13.47759     13.99801        -0.670452     -1.165571     -0.209780
Au     16.68268     14.63435     13.04953         1.003996     -0.144351     -2.186008
Au     15.98358     17.83876     16.44198         0.697495      1.584317      0.183564
Au     13.98247     16.37416     17.51575        -0.932686      0.407547      1.531178
Au     16.44649     15.40493     17.38932         1.060071     -0.820171      1.385271
Au     12.47142     15.34867     15.40670        -1.242239     -0.439212      0.124336
Au     17.69519     16.06151     15.09908         1.521333      0.804611     -0.034110
Au     13.39828     18.02699     15.54267        -0.586914      1.593130      0.500462
Au     14.29247     13.85678     16.69283        -0.213665     -1.357817      0.761347
Au     16.66553     13.57575     15.36063         0.675896     -1.583995      1.356432
