13
# total energy = -27.11225587 eVAu     13.91611     18.09302     14.61934         0.136031      0.446528      0.020345
Au     17.95719     15.76008     14.61427        -0.314101     -0.933697      0.096936
Au     13.88903     13.44384     14.61826        -0.624631     -0.124491      0.015369
Au     14.08696     10.91542     14.28070         0.256918     -0.024613      0.041241
Au     11.62912     19.18517     14.28350        -0.168599     -0.200720      0.038329
Au     19.99943     17.16782     14.27878         0.389486      0.567049     -0.038986
Au     16.57049     13.42471     14.64848        -0.136031     -0.446528     -0.020345
Au     12.52938     15.75765     14.65355         0.314101      0.933697     -0.096936
Au     16.59754     18.07389     14.64956         0.624631      0.124491     -0.015369
Au     16.39964     20.60231     14.98712        -0.256918      0.024613     -0.041241
Au     18.85748     12.33256     14.98432         0.168599      0.200720     -0.038329
Au     10.48717     14.34991     14.98904        -0.389486     -0.567049      0.038986
Au     15.24330     15.75888     14.63391        -0.000000      0.000000      0.000000
