13
# total energy = -30.12978816 eVAu     11.95098     16.05861     12.87125        -0.000256      0.034130      0.040108
Au     16.47596     17.03675     13.35080        -0.011252     -0.007311      0.004889
Au     13.85150     17.65116     14.01697         0.040774      0.004559      0.042839
Au     12.34226     13.39496     13.50573         0.013407     -0.041542     -0.064824
Au     17.00794     14.41405     14.14093        -0.046317      0.044347     -0.008191
Au     14.56969     15.06723     12.81211        -0.026496     -0.043810      0.039256
Au     15.61607     15.21437     16.41413         0.020241     -0.010235      0.005850
Au     16.01836     18.75754     15.39259        -0.006982     -0.008814     -0.009999
Au     13.97937     17.37762     16.85050         0.004762      0.017532     -0.019558
Au     16.57488     17.55624     17.81601         0.023558     -0.023527     -0.030513
Au     12.96402     15.28818     15.43123        -0.012643      0.006892     -0.073388
Au     17.98272     16.49204     15.69103        -0.039722     -0.003901      0.012923
Au     14.68176     13.05631     14.79053         0.040928      0.031678      0.060611
