13
# total energy = -29.96195454 eVAu     11.18838     16.83381     12.05916        -0.034167     -0.028035     -0.003346
Au     14.00702     16.45869     12.14960        -0.003651     -0.015690      0.024534
Au     16.77557     15.82028     12.29360         0.024030     -0.038414     -0.001135
Au     12.23134     14.30082     12.40543         0.082593      0.013441      0.016617
Au     14.88608     13.81937     12.51671        -0.074464      0.040477      0.009040
Au     15.48552     17.33817     14.32385        -0.016726     -0.025793      0.006520
Au     14.21859     18.63561     16.51564        -0.002776     -0.007773      0.044235
Au     12.35196     16.61033     16.70318        -0.021410     -0.021634     -0.082724
Au     15.23476     16.08716     16.82392         0.019795     -0.028855     -0.084201
Au     10.91176     15.75409     14.58498         0.067540      0.031324      0.046551
Au     12.75961     17.83200     14.20983         0.006147     -0.027026      0.007879
Au     13.58484     14.76602     14.88850         0.010345      0.051318     -0.026935
Au     16.44988     14.74872     14.81696        -0.057255      0.056659      0.042965
