13
# total energy = -30.07619524 eVAu     12.96525     14.09619     12.73074         0.056574      0.024872      0.009720
Au     16.60134     16.68944     13.85910        -0.000933     -0.005364     -0.048207
Au     13.90227     16.75951     13.14571         0.019320      0.029460      0.005271
Au     15.25529     12.58286     12.09875         0.036295     -0.041635      0.030750
Au     17.57371     13.93903     13.28115         0.012911      0.032398      0.006870
Au     15.64046     15.23483     11.75794        -0.072171      0.028437      0.012280
Au     14.97110     13.77769     14.57116         0.006598     -0.012998      0.024063
Au     17.24637     17.24403     16.45797        -0.010857     -0.019700      0.055671
Au     14.63144     17.61916     15.69503        -0.000649      0.060355      0.015096
Au     17.23653     14.42566     16.02442        -0.043604     -0.027505      0.007416
Au     12.70199     15.41525     15.19673        -0.028283     -0.049515     -0.051195
Au     19.09943     15.89489     14.75692         0.025065     -0.029438     -0.075563
Au     14.85285     15.20034     16.95604        -0.000263      0.010633      0.007828
