13
# total energy = -30.10495489 eVAu     11.94719     16.06917     12.84275        -0.015068     -0.040879      0.055652
Au     16.50792     17.01548     13.34770        -0.067261      0.031073     -0.009205
Au     13.86276     17.62493     14.02986         0.018339      0.058571     -0.036012
Au     12.36122     13.38299     13.55171        -0.012462      0.027172     -0.037627
Au     17.07128     14.40533     14.11684        -0.065569      0.018628      0.045151
Au     14.54937     15.06777     12.86890         0.071677     -0.007614     -0.074083
Au     15.57833     15.30328     16.29371         0.045585     -0.063446      0.042980
Au     15.99595     18.69793     15.40328         0.055200      0.055689      0.024473
Au     13.92619     17.39039     16.89933         0.023070      0.007330     -0.026012
Au     16.58224     17.50955     17.81163        -0.025468      0.033117      0.019899
Au     12.88015     15.34074     15.43535         0.010046     -0.079206     -0.011253
Au     18.01637     16.48110     15.69312         0.019126     -0.003388     -0.026789
Au     14.73655     13.07636     14.78962        -0.057214     -0.037047      0.032826
