13
# total energy = -29.75399606 eVAu     13.00390     14.10375     12.71072        -0.300903     -0.092365     -0.119377
Au     16.63327     16.84453     13.66924        -0.183114     -0.156841      0.086565
Au     13.81168     16.77224     13.01487         0.103781      0.023926      0.151867
Au     15.34234     12.58219     12.45864         0.022568     -0.185159     -0.310820
Au     17.65109     14.04132     13.20887        -0.119007      0.010539      0.126500
Au     15.53718     15.17173     11.66258         0.151605      0.132650      0.116568
Au     15.06962     14.39595     14.48172         0.250217     -0.182504      0.361320
Au     17.12698     16.90655     16.47850        -0.073000      0.252171      0.036430
Au     14.58566     17.47719     15.59839         0.136139     -0.125391      0.007959
Au     17.33974     14.11950     16.11637        -0.261777      0.200574     -0.145178
Au     12.64462     15.42742     15.21960        -0.005036      0.102286      0.005469
Au     19.00297     15.87399     14.76455         0.140236     -0.027512     -0.014874
Au     14.92900     15.16254     17.14759         0.138289      0.047625     -0.302428
