13
# total energy = -30.11470900 eVAu     13.02905     14.02969     12.63841        -0.103535     -0.027126     -0.055432
Au     16.56039     16.68374     13.89662         0.109264     -0.000776      0.054119
Au     13.86149     16.90107     13.28785        -0.025633     -0.051945      0.099999
Au     15.42673     12.51869     12.14789         0.012997     -0.029175     -0.083576
Au     17.57660     13.97767     13.26441        -0.057505     -0.013616     -0.092240
Au     15.44537     15.23287     11.88521         0.048441     -0.038573     -0.080677
Au     14.92210     13.65808     14.58227         0.209437      0.048156      0.169776
Au     17.32530     17.17567     16.49761        -0.068189     -0.048888      0.042316
Au     14.76568     17.87374     15.72320        -0.002740      0.081719      0.003973
Au     17.19502     14.36059     16.00076        -0.083096      0.024228      0.017350
Au     12.66073     15.23920     15.09680        -0.120694      0.017781      0.003288
Au     19.07642     15.85936     14.72196         0.062473     -0.000310     -0.021549
Au     14.83318     15.36853     16.78866         0.018780      0.038526     -0.057347
