13
# total energy = -29.46411351 eVAu     15.69099     16.55272     13.90994        -0.067050      0.037915     -0.109332
Au     13.76907     15.39310     12.33350         0.049122      0.012104      0.053791
Au     17.72676     15.72171     12.17927        -0.032740     -0.064751     -0.064374
Au     13.35146     12.88970     13.58963        -0.030922      0.079050     -0.095280
Au     17.75360     14.13133     14.34130         0.047150     -0.021331      0.085544
Au     15.84189     13.55615     12.46072        -0.019573     -0.032169      0.059835
Au     16.40615     18.18656     16.07703         0.061768      0.047614      0.022971
Au     14.60632     15.92044     16.86367         0.057846     -0.024618      0.079705
Au     17.30322     15.56792     16.61957        -0.057319     -0.034909     -0.046031
Au     12.77348     15.30162     14.91989         0.029591     -0.061421      0.017676
Au     18.39148     17.05730     14.48578         0.046657      0.057157      0.036004
Au     13.76368     17.97531     15.35673        -0.089539     -0.031371     -0.019900
Au     15.23641     13.76615     15.31913         0.005009      0.036729     -0.020610
