13
# total energy = -30.10343226 eVAu     13.04159     14.10356     12.68281        -0.023292     -0.049821     -0.018989
Au     16.59462     16.69381     13.86021         0.001973     -0.000325      0.029401
Au     13.89800     16.84031     13.20693        -0.027334      0.032208      0.019712
Au     15.35006     12.53338     12.14243        -0.018967      0.045317     -0.011977
Au     17.54594     13.96528     13.25281         0.046527      0.002723      0.052457
Au     15.53401     15.23682     11.79476         0.002436     -0.046791     -0.014393
Au     14.96439     13.70554     14.61413         0.001628      0.011068     -0.008819
Au     17.26169     17.19637     16.48142         0.016095      0.026463      0.003538
Au     14.66329     17.71173     15.71806         0.036311      0.026488     -0.004510
Au     17.21837     14.42274     16.02684        -0.017348     -0.040155     -0.041378
Au     12.68601     15.35029     15.13716         0.006946     -0.028693      0.038681
Au     19.09215     15.85766     14.69869        -0.018109      0.004016      0.018430
Au     14.82793     15.26140     16.91541        -0.006865      0.017500     -0.062152
