13
# total energy = -28.13730674 eVAu     14.30707     15.54050     11.84569         0.076511      0.390181     -0.167274
Au     11.99468     16.08235     13.44182         0.093019     -0.121311     -0.105130
Au     15.70424     13.59787     13.29649         0.419736     -0.422083     -0.382364
Au     14.07169     18.18943     13.24856        -0.221886     -0.266536      0.131793
Au     13.02237     13.32428     13.76322        -0.286368      0.054614      0.428456
Au     16.75957     16.26940     13.09283         0.107896     -0.181189      0.162344
Au     17.01301     15.15419     15.73702        -0.093019      0.121311      0.105130
Au     13.30342     17.63876     15.88229        -0.419736      0.422083      0.382364
Au     14.70053     15.69613     17.33324        -0.076511     -0.390181      0.167274
Au     14.50386     15.61830     14.58942        -0.000000     -0.000000      0.000000
Au     14.93603     13.04717     15.93031         0.221886      0.266536     -0.131793
Au     15.98544     17.91229     15.41562         0.286368     -0.054614     -0.428456
Au     12.24812     14.96717     16.08598        -0.107896      0.181189     -0.162344
