13
# total energy = -29.28667104 eVAu     14.74947     17.23613     11.73637        -0.004533      0.141049      0.075323
Au     15.63495     19.60729     13.33633         0.219972      0.011386     -0.129052
Au     17.14274     17.27599     13.20168        -0.250199     -0.405678     -0.100174
Au     13.49198     18.02167     14.08764         0.176604      0.232277     -0.282270
Au     13.13888     15.49729     12.93440         0.032269     -0.080901      0.099988
Au     15.97378     14.67538     13.29617        -0.022228      0.189337     -0.149134
Au     15.45684     16.14114     15.43264         0.231848     -0.317871      0.152310
Au     17.08046     18.87165     15.45182        -0.096103      0.125539      0.074842
Au     14.54565     18.26656     16.67757         0.092891      0.304116      0.272812
Au     17.40367     17.43653     17.63526        -0.204187     -0.030621     -0.166249
Au     12.76567     16.20399     15.85872        -0.165421     -0.480593      0.141042
Au     13.72161     13.68533     14.80428         0.041385      0.150426     -0.052014
Au     18.17378     15.97837     15.33610        -0.052299      0.161534      0.062576
