13
# total energy = -30.37539664 eVAu     13.05476     15.61107     12.17005         0.005658     -0.013977      0.010680
Au     15.62983     16.77740     12.99728         0.015310      0.009582      0.002827
Au     11.53987     15.14331     14.39360        -0.009723     -0.004949     -0.009245
Au     14.34943     14.17128     14.10188        -0.000568      0.007531     -0.004517
Au     17.09305     14.43517     13.52439        -0.016961      0.014514     -0.012672
Au     15.43791     14.56371     11.34594        -0.006505     -0.004745     -0.010381
Au     16.04109     14.85457     16.13469         0.019196     -0.023126      0.026427
Au     15.98246     17.69348     15.52022        -0.020615     -0.013299     -0.027109
Au     14.78407     16.72863     17.91121         0.032250     -0.007019      0.001821
Au     17.51363     16.69461     17.66633         0.000185      0.011017     -0.003490
Au     18.36496     16.19601     15.10904        -0.009045     -0.000926      0.033901
Au     13.48068     17.09674     14.67704        -0.001187      0.012432      0.011996
Au     13.22962     15.01180     16.54556        -0.007994      0.012967     -0.020237
