13
# total energy = 1598.97499407 eVAu     16.56785     16.13032     12.83039         4.013420     -5.504562    -14.966369
Au     11.73649     15.18590     12.83039        -4.013420      5.504562    -14.966369
Au     13.67996     18.07379     12.83039         5.504562      4.013420    -14.966369
Au     14.62438     13.24243     12.83039        -5.504562     -4.013420    -14.966369
Au     16.56785     15.18590     16.37458         4.013420      5.504562     14.966369
Au     14.62438     18.07379     16.37458        -5.504562      4.013420     14.966369
Au     13.67996     13.24243     16.37458         5.504562     -4.013420     14.966369
Au     11.73649     16.13032     16.37458        -4.013420     -5.504562     14.966369
Au     14.15217     15.65811     14.60247         0.000000      0.000000      0.000000
Au     12.08173     17.72855     14.60247        -8.064784      8.064784      0.000000
Au     16.22261     13.58767     14.60247         8.064784     -8.064784      0.000000
Au     12.08173     13.58767     14.60247        -8.064784     -8.064784      0.000000
Au     16.22261     17.72855     14.60247         8.064784      8.064784      0.000000
