13
# total energy = -30.08521991 eVAu     11.93851     16.06539     12.85829         0.048325     -0.044194      0.028830
Au     16.49947     17.02706     13.34414        -0.018371     -0.018985     -0.005428
Au     13.87472     17.63135     14.02212        -0.005400     -0.022353      0.034701
Au     12.37471     13.37663     13.56062        -0.018616      0.037746     -0.055326
Au     17.09187     14.41062     14.11803        -0.086917     -0.017674      0.020925
Au     14.56732     15.04941     12.87479        -0.022423      0.049680     -0.027259
Au     15.56373     15.34752     16.22711         0.008209     -0.010397      0.077540
Au     16.01842     18.67875     15.42590        -0.027184      0.041445     -0.017408
Au     13.89048     17.38993     16.91637         0.091441     -0.040593     -0.106275
Au     16.57701     17.48983     17.81409        -0.022381     -0.011709     -0.015254
Au     12.82113     15.35497     15.43384         0.154710     -0.001837      0.032529
Au     18.05576     16.47267     15.67857        -0.072137      0.034242      0.032196
Au     14.74240     13.07092     14.80994        -0.029257      0.004627      0.000231
