13
# total energy = -29.40132998 eVAu     15.03541     16.04027     14.67550         0.116927     -0.057400     -0.268412
Au     12.62570     16.97994     13.18785        -0.251140     -0.011311     -0.069988
Au     14.24650     15.24567     11.94420        -0.011997     -0.090442     -0.237206
Au     14.20031     13.41014     13.95520         0.171553      0.271798      0.235151
Au     16.72149     14.61311     12.90969        -0.016200     -0.177804      0.250472
Au     16.02142     17.93484     16.48840         0.097745     -0.165495     -0.033886
Au     13.99282     16.42528     17.67280        -0.034824      0.042626      0.067432
Au     16.54460     15.37471     17.52548         0.089638     -0.224082     -0.058972
Au     12.40105     15.31745     15.38523         0.177508      0.091710     -0.143025
Au     17.82696     16.08122     15.10498        -0.336601     -0.178279      0.149874
Au     13.33566     18.05516     15.57042        -0.152940      0.177841      0.203786
Au     14.26776     13.81983     16.75590         0.218854     -0.067567     -0.088134
Au     16.74305     13.45329     15.44542        -0.068524      0.388404     -0.007093
