13
# total energy = -30.16385997 eVAu     12.95800     13.89649     12.60221         0.174508     -0.138154     -0.145447
Au     16.55074     16.64640     13.97987        -0.078946      0.053820     -0.104204
Au     13.82593     16.95463     13.45199         0.152695     -0.166392      0.255384
Au     15.52478     12.50175     12.11483        -0.039167      0.047362     -0.009174
Au     17.62487     13.99962     13.24132        -0.136477      0.018351     -0.065772
Au     15.34222     15.22645     12.01370        -0.092827     -0.026707     -0.062373
Au     14.91027     13.60225     14.54688         0.131686      0.080586      0.120669
Au     17.39163     17.10675     16.53296        -0.231437      0.102812      0.258239
Au     14.92882     18.17777     15.71723         0.067362     -0.094963      0.025306
Au     17.14228     14.28122     15.98216         0.008331      0.085518     -0.019318
Au     12.56921     15.04154     15.03105        -0.026491      0.150720      0.115955
Au     19.07370     15.87354     14.75351         0.176063     -0.208400     -0.116268
Au     14.83561     15.57045     16.56394        -0.105301      0.095447     -0.252995
