13
# total energy = -29.80363306 eVAu     15.97443     17.78422     13.39548        -0.034513     -0.075510      0.015903
Au     14.35361     15.59051     12.92042         0.100200      0.022495      0.114261
Au     17.19852     15.52713     12.50823         0.005671      0.002258     -0.076641
Au     13.24512     13.08540     13.31869        -0.111540     -0.116360     -0.053384
Au     17.87869     13.76049     14.45580        -0.001502     -0.026167      0.037310
Au     15.88759     13.06711     12.57816         0.060658      0.058418     -0.022642
Au     16.35843     18.37527     16.08163        -0.004696      0.035525     -0.008526
Au     14.49594     15.68224     17.16678         0.026533     -0.059300     -0.002133
Au     17.03777     15.74972     16.15528        -0.063665     -0.053790     -0.043591
Au     12.58146     14.96574     15.20533         0.009502      0.095722     -0.000228
Au     18.50574     17.14857     14.36697         0.030000      0.030907     -0.013788
Au     13.91630     17.40425     15.13773        -0.066797      0.061792     -0.006139
Au     15.18092     13.87935     15.16567         0.050148      0.024009      0.059598
