13
# total energy = -29.92670435 eVAu     14.57651     16.69994     12.99122        -0.005209     -0.012050      0.008471
Au     11.73562     16.57010     12.79123        -0.001239      0.001015      0.010702
Au     13.24236     14.91722     11.20765         0.009676     -0.009489      0.001798
Au     11.02214     13.80898     12.62738         0.012130      0.014421     -0.004937
Au     17.18192     15.95532     13.87888         0.001652     -0.008768     -0.002132
Au     13.56257     13.11381     13.38312         0.005183     -0.001134     -0.005516
Au     15.77105     14.34915     12.14213         0.012024     -0.015507     -0.016073
Au     15.67297     17.60833     15.46158        -0.009349     -0.001984      0.005446
Au     14.25730     15.36060     16.47806        -0.010140      0.006786      0.000864
Au     16.98994     15.38027     16.67148        -0.003251      0.010823     -0.014080
Au     12.94670     17.44490     15.10530        -0.014551      0.011184      0.013967
Au     12.04440     14.77732     14.97763        -0.000273      0.008667      0.006980
Au     15.77471     13.69714     14.88335         0.003346     -0.003963     -0.005490
