13
# total energy = -28.07032146 eVAu     14.23746     15.48301     11.81700         0.013015      0.010658      0.006166
Au     11.97508     16.14546     13.54617         0.004280     -0.011809     -0.018848
Au     15.89352     13.57492     13.29596        -0.035403      0.005016      0.000508
Au     14.20610     18.00149     13.20196        -0.024625      0.033756      0.009033
Au     13.03103     13.45214     13.66509        -0.001020     -0.022852      0.018350
Au     16.71590     16.35393     13.06381         0.007271     -0.015941      0.005842
Au     17.03261     15.09108     15.63267        -0.004280      0.011809      0.018848
Au     13.11414     17.66171     15.88282         0.035403     -0.005016     -0.000508
Au     14.77014     15.75362     17.36193        -0.013015     -0.010658     -0.006166
Au     14.50386     15.61830     14.58942         0.000000      0.000000      0.000000
Au     14.80162     13.23511     15.97691         0.024625     -0.033756     -0.009033
Au     15.97678     17.78443     15.51375         0.001020      0.022852     -0.018350
Au     12.29179     14.88264     16.11500        -0.007271      0.015941     -0.005842
