13
# total energy = -22.88329228 eVAu     15.56053     13.93147     13.60846        -0.068391      0.745868      0.660038
Au     14.81036     18.71759     13.60846         0.068391     -0.745868      0.660038
Au     17.47547     15.94946     13.50544        -0.660038      0.068391      0.745868
Au     12.89539     16.69960     13.50544         0.660038     -0.068391      0.745868
Au     12.79237     18.61457     15.52343         0.745868     -0.660038      0.068391
Au     17.57849     14.03449     15.52343        -0.745868      0.660038      0.068391
Au     14.81036     13.93147     18.18854         0.068391      0.745868     -0.660038
Au     15.56053     18.71759     18.18854        -0.068391     -0.745868     -0.660038
Au     17.47547     16.69960     18.29156        -0.660038     -0.068391     -0.745868
Au     12.89539     15.94946     18.29156         0.660038      0.068391     -0.745868
Au     17.57849     18.61457     16.27357        -0.745868     -0.660038     -0.068391
Au     12.79237     14.03449     16.27357         0.745868      0.660038     -0.068391
Au     15.18543     16.32453     15.89850         0.000000     -0.000000      0.000000
