13
# total energy = -29.64227291 eVAu     14.69189     17.40192     11.66598        -0.039430     -0.121335      0.040449
Au     15.83285     19.68868     13.02074        -0.016366     -0.058935     -0.039128
Au     16.93996     17.10437     13.30053        -0.104947     -0.026172     -0.038044
Au     13.79942     18.03833     14.18584         0.239668      0.138678     -0.073465
Au     13.12032     15.61976     12.90576        -0.110024     -0.001338      0.002833
Au     15.74156     14.69903     13.26570         0.033388      0.069606      0.097140
Au     15.62979     15.82064     15.79945         0.058749     -0.074081     -0.220420
Au     16.87139     19.00076     15.34635         0.011173      0.016936      0.057585
Au     14.58611     18.13548     16.83400        -0.025021     -0.090725      0.067294
Au     17.25953     17.62295     17.56072        -0.032557      0.053640      0.176556
Au     12.92956     16.05759     15.80567        -0.074229     -0.001667      0.005013
Au     13.61368     13.60717     14.65647        -0.091977     -0.025709     -0.034348
Au     18.26340     16.10065     15.44176         0.151574      0.121103     -0.041464
