13
# total energy = -26.37421575 eVAu     14.99452     16.28868     12.58700         0.285940      0.605652     -1.828202
Au     12.58864     15.11132     13.38538        -1.475565     -0.253318     -1.241776
Au     14.91536     13.57294     13.23973         0.232304     -1.381776     -1.345406
Au     13.28644     17.64709     14.33254        -0.961014      1.590715     -0.545215
Au     16.04639     17.67429     14.77345         1.051177      1.613470     -0.226833
Au     17.05408     15.15598     14.09803         1.784041     -0.226433     -0.716190
Au     16.61831     15.81463     16.77857         1.475565      0.253318      1.241776
Au     14.29159     17.35298     16.92422        -0.232304      1.381776      1.345406
Au     14.21240     14.63724     17.57692        -0.285940     -0.605652      1.828202
Au     14.60346     15.46296     15.08196         0.000000     -0.000000     -0.000000
Au     15.92051     13.27886     15.83138         0.961014     -1.590715      0.545215
Au     13.16056     13.25163     15.39050        -1.051177     -1.613470      0.226833
Au     12.15287     15.76994     16.06592        -1.784041      0.226433      0.716190
