13
# total energy = -28.96958985 eVAu     14.77412     17.10260     11.81060        -0.193842      0.121911     -0.169252
Au     15.65246     19.48772     13.58439        -0.089901      0.118160     -0.281719
Au     17.19425     17.27569     13.04859         0.231694      0.177624      0.191342
Au     13.22742     18.04726     13.87995         0.126713     -0.067502      0.228596
Au     13.14191     15.35597     12.98598         0.041810     -0.004056      0.120529
Au     16.14214     14.75962     13.25723        -0.163226     -0.236876     -0.103512
Au     15.29281     16.41060     15.13595         0.175591     -0.069489      0.237883
Au     17.22413     18.84211     15.58103         0.024712     -0.078255     -0.036355
Au     14.63719     18.40694     16.72414        -0.166247     -0.109945     -0.079531
Au     17.32974     17.16550     17.62755        -0.126043      0.134193      0.066833
Au     12.71090     16.25962     15.89039         0.097443      0.119192     -0.019845
Au     13.91806     13.78638     14.98459         0.003712      0.010850     -0.143841
Au     18.03434     15.99731     15.27860         0.037583     -0.115807     -0.011129
