13
# total energy = -29.80271157 eVAu     15.97150     17.77827     13.39642        -0.022182     -0.056898      0.014840
Au     14.35163     15.59381     12.91362         0.075901     -0.009808      0.113395
Au     17.19689     15.52270     12.50718         0.029559      0.023096     -0.068443
Au     13.24661     13.08513     13.32105        -0.082248     -0.084332     -0.041581
Au     17.87815     13.75736     14.45506         0.012463     -0.016305      0.039194
Au     15.89177     13.06556     12.57423         0.027300      0.048715     -0.008552
Au     16.36177     18.37326     16.07996        -0.016505      0.027330     -0.010049
Au     14.49260     15.68138     17.16838         0.032648     -0.042591      0.009175
Au     17.04117     15.74610     16.16290        -0.045405     -0.028067     -0.041852
Au     12.57819     14.96764     15.20944         0.014381      0.064496     -0.017132
Au     18.50312     17.15028     14.36919         0.020263      0.016995     -0.019058
Au     13.91386     17.40018     15.13793        -0.048752      0.082374      0.003740
Au     15.18725     13.89834     15.16081         0.002578     -0.025002      0.026323
