13
# total energy = -29.52381065 eVAu     15.70780     16.82633     13.73822         0.030790      0.080620     -0.024928
Au     13.85088     15.40640     12.42572         0.046439      0.085493     -0.005668
Au     17.73268     15.60582     12.22486        -0.088124      0.037355      0.025853
Au     13.26633     12.91862     13.46234        -0.021383     -0.051249      0.010371
Au     17.79132     14.06656     14.42030        -0.027286     -0.066060     -0.005990
Au     15.86702     13.46744     12.52519         0.049416     -0.101167     -0.117099
Au     16.40592     18.22711     16.03553        -0.054209     -0.009008      0.078141
Au     14.63247     15.86326     16.95122        -0.041615     -0.057643      0.008922
Au     17.29016     15.59760     16.58246        -0.010159      0.057910     -0.053987
Au     12.77448     15.22711     15.00268        -0.155491      0.014990      0.047659
Au     18.38232     17.10312     14.45218         0.054309     -0.074182     -0.012510
Au     13.73330     17.88090     15.43126         0.044770     -0.034383     -0.078861
Au     15.17983     13.82973     15.20421         0.172543      0.117325      0.128098
