13
# total energy = -30.37342213 eVAu     13.05030     15.61739     12.16392         0.037632     -0.007004      0.043989
Au     15.64463     16.77105     13.00582        -0.048980      0.013231     -0.005650
Au     11.54271     15.14015     14.39527        -0.009201      0.000219     -0.032351
Au     14.34586     14.17706     14.09595         0.015675      0.015552      0.018580
Au     17.09352     14.42701     13.52310         0.000035     -0.000214      0.011107
Au     15.43867     14.56104     11.34929        -0.032182      0.004710     -0.015893
Au     16.04239     14.86071     16.13460        -0.021343     -0.065765     -0.010815
Au     15.98339     17.70069     15.51940        -0.004955      0.017469     -0.006861
Au     14.78079     16.73354     17.90257         0.014955     -0.006310      0.007358
Au     17.51069     16.69194     17.66279         0.019651      0.026021      0.021308
Au     18.35780     16.20112     15.10297         0.006183     -0.002580      0.018939
Au     13.48407     17.09234     14.69408         0.009943      0.004107     -0.048455
Au     13.22656     15.00374     16.54748         0.012587      0.000564     -0.001257
