13
# total energy = 997.24650624 eVAu     15.34771     14.17639     13.82874        -9.838341     -9.909069    -10.365491
Au     15.02318     18.47267     13.82874         9.838341      9.909069    -10.365491
Au     17.25519     16.16228     13.75036        10.365491      9.838341     -9.909069
Au     13.11567     16.48678     13.75036       -10.365491     -9.838341     -9.909069
Au     13.03729     18.39429     15.73625        -9.909069     10.365491      9.838341
Au     17.33357     14.25477     15.73625         9.909069    -10.365491      9.838341
Au     15.02318     14.17639     17.96826         9.838341     -9.909069     10.365491
Au     15.34771     18.47267     17.96826        -9.838341      9.909069     10.365491
Au     17.25519     16.48678     18.04664        10.365491     -9.838341      9.909069
Au     13.11567     16.16228     18.04664       -10.365491      9.838341      9.909069
Au     17.33357     18.39429     16.06075         9.909069     10.365491     -9.838341
Au     13.03729     14.25477     16.06075        -9.909069    -10.365491     -9.838341
Au     15.18543     16.32453     15.89850         0.000000      0.000000     -0.000000
