13
# total energy = -24.50659537 eVAu     13.47799     17.96574     14.00717         0.357719     -0.494100      0.813734
Au     18.03688     16.17600     14.00617        -0.559827     -0.044056      0.817783
Au     14.21103     13.12948     14.01511         0.247596      0.552280      0.806004
Au     13.76006     10.56723     14.22337         0.101299      0.410446     -0.063305
Au     11.49092     19.64282     14.23010         0.301363     -0.292398     -0.065784
Au     20.48604     17.07149     14.22605        -0.450783     -0.134456     -0.069267
Au     17.00861     13.55199     15.26065        -0.357719      0.494100     -0.813734
Au     12.44969     15.34173     15.26165         0.559827      0.044056     -0.817783
Au     16.27554     18.38825     15.25271        -0.247596     -0.552280     -0.806004
Au     16.72654     20.95050     15.04445        -0.101299     -0.410446      0.063305
Au     18.99568     11.87491     15.03772        -0.301363      0.292398      0.065784
Au     10.00056     14.44624     15.04177         0.450783      0.134456      0.069267
Au     15.24330     15.75888     14.63391        -0.000000      0.000000     -0.000000
