13
# total energy = -26.34523611 eVAu     14.99711     16.28784     12.59509         0.294570      0.629633     -1.887913
Au     12.59146     15.10597     13.39069        -1.523134     -0.236851     -1.273661
Au     14.90793     13.57515     13.23998         0.260358     -1.409640     -1.366031
Au     13.28590     17.64887     14.33262        -0.969561      1.583365     -0.538982
Au     16.04737     17.67663     14.77331         1.050293      1.627268     -0.240258
Au     17.05771     15.15603     14.09787         1.774845     -0.245064     -0.710923
Au     16.61549     15.81998     16.77326         1.523134      0.236851      1.273661
Au     14.29902     17.35077     16.92397        -0.260358      1.409640      1.366031
Au     14.20981     14.63808     17.56883        -0.294570     -0.629633      1.887913
Au     14.60346     15.46296     15.08196         0.000000     -0.000000      0.000000
Au     15.92105     13.27708     15.83130         0.969561     -1.583365      0.538982
Au     13.15958     13.24929     15.39064        -1.050293     -1.627268      0.240258
Au     12.14924     15.76989     16.06608        -1.774845      0.245064      0.710923
