13
# total energy = -26.35897254 eVAu     13.65817     18.04764     14.60386         0.250809     -0.182048     -0.037847
Au     18.03383     15.98440     14.60158        -0.492062     -0.199982     -0.010766
Au     14.04579     13.24082     14.60760         0.041535      0.299538     -0.045122
Au     13.89984     10.68221     14.19883         0.127375      0.298276      0.079673
Au     11.52387     19.46297     14.20487         0.170355     -0.244236      0.073346
Au     20.29892     17.12821     14.19839        -0.135392      0.055393      0.046092
Au     16.82843     13.47009     14.66396        -0.250809      0.182048      0.037847
Au     12.45274     15.53333     14.66624         0.492062      0.199982      0.010766
Au     16.44078     18.27691     14.66022        -0.041535     -0.299538      0.045122
Au     16.58676     20.83552     15.06899        -0.127375     -0.298276     -0.079673
Au     18.96273     12.05476     15.06295        -0.170355      0.244236     -0.073346
Au     10.18768     14.38952     15.06943         0.135392     -0.055393     -0.046092
Au     15.24330     15.75888     14.63391         0.000000      0.000000     -0.000000
