13
# total energy = -29.84644707 eVAu     13.10612     16.47292     12.09072        -0.108697     -0.011971     -0.356835
Au     14.79511     17.20206     14.15269         0.102197      0.508257     -0.254384
Au     11.11913     15.27158     13.62656        -0.149338     -0.124472     -0.036679
Au     17.47482     16.43588     14.00528         0.318310     -0.053739     -0.021228
Au     12.06888     17.74033     14.41409        -0.309573      0.088643      0.005545
Au     13.51660     13.97541     13.27957        -0.237294     -0.246481     -0.073684
Au     15.65591     15.38394     12.25324         0.045491      0.104944     -0.315108
Au     13.01531     15.36943     15.64737        -0.358189     -0.222626      0.153875
Au     16.47098     17.86731     16.24666         0.155493      0.234509      0.244770
Au     13.71605     17.94747     16.58872         0.039135      0.316396      0.104640
Au     17.71020     15.39279     16.54960         0.106135     -0.086850      0.141873
Au     15.11266     15.70606     17.38837         0.156462     -0.151737      0.272110
Au     15.64789     14.47867     14.93725         0.239868     -0.354873      0.135105
