13
# total energy = -29.97169474 eVAu     15.12443     16.69812     13.90875         0.008061      0.012162      0.006146
Au     12.51957     16.99448     13.15506         0.003025     -0.010464      0.003593
Au     14.24525     15.21419     11.79646        -0.004386     -0.007798      0.001391
Au     14.36875     13.69586     14.11961         0.002475     -0.000141      0.006411
Au     16.70102     14.37013     12.91020         0.003540     -0.004288     -0.007231
Au     15.81760     17.62022     16.42143        -0.001650      0.004810     -0.003029
Au     13.90598     16.38381     17.90242         0.005351     -0.008838     -0.005995
Au     16.61873     15.25791     17.73824         0.001608     -0.001921      0.002705
Au     12.70691     15.40745     15.43151        -0.000640      0.013372      0.001551
Au     17.47563     15.89566     15.12034        -0.000292      0.000568     -0.001758
Au     13.16179     18.07011     15.68384        -0.007598      0.001576      0.003814
Au     14.45559     13.85463     16.85877        -0.016330     -0.001059     -0.010939
Au     16.86149     13.28835     15.57445         0.006837      0.002022      0.003342
