13
# total energy = -30.24261798 eVAu     13.23302     16.04043     12.31687        -0.003794     -0.155388      0.025900
Au     15.85304     16.63233     13.20445        -0.039755      0.062881      0.038388
Au     11.64172     15.05516     14.35111        -0.092934      0.029333     -0.005727
Au     14.25674     14.01790     14.01191         0.147761      0.178971      0.154509
Au     17.08100     14.13791     13.56313        -0.047112      0.179514     -0.003803
Au     15.35757     14.50155     11.44557         0.021375      0.013577     -0.094004
Au     15.96188     14.98692     16.00803        -0.041070     -0.198942     -0.013374
Au     16.05266     18.06495     15.53756        -0.138738     -0.301232     -0.118136
Au     14.62044     16.83580     17.67555         0.018947     -0.051992      0.025154
Au     17.42883     16.72033     17.55378         0.065239      0.079117      0.069005
Au     18.19654     16.30297     14.87980         0.011372     -0.050631      0.031057
Au     13.60265     16.96754     14.96382         0.057703      0.048522     -0.039217
Au     13.21529     14.71400     16.58564         0.041005      0.166270     -0.069751
