13
# total energy = -29.97108989 eVAu     15.11905     16.68061     13.92403         0.001476      0.022939     -0.012862
Au     12.52123     16.99265     13.14892         0.002100      0.002022      0.024988
Au     14.24365     15.20848     11.79523        -0.000399      0.005496     -0.006672
Au     14.36487     13.69322     14.11447        -0.003102     -0.001684     -0.002379
Au     16.70118     14.37487     12.90923        -0.002233     -0.000509      0.012156
Au     15.82314     17.62327     16.42438        -0.003792     -0.001228     -0.001961
Au     13.91445     16.38813     17.90462        -0.002907     -0.005042     -0.000800
Au     16.62744     15.25194     17.74156        -0.020502      0.005138     -0.002112
Au     12.69244     15.40663     15.42319         0.007254      0.021496     -0.007425
Au     17.48290     15.89760     15.12677        -0.001452      0.003617     -0.014857
Au     13.15785     18.06802     15.69200         0.009994     -0.024659     -0.022244
Au     14.45220     13.87306     16.84461         0.012422     -0.022214      0.029837
Au     16.86236     13.29245     15.57207         0.001141     -0.005372      0.004331
