13
# total energy = -26.70452659 eVAu     13.80283     18.03834     14.61370         0.186902      0.229886      0.020858
Au     17.92566     15.88849     14.61432         0.285193     -0.440266     -0.001909
Au     14.00864     13.37256     14.61366        -0.475648      0.036883      0.024208
Au     13.99787     10.86559     14.25087         0.166291     -0.284903     -0.001357
Au     11.62615     19.28968     14.25395        -0.293210     -0.017815      0.004165
Au     20.12043     17.13671     14.24404         0.000991      0.181331      0.025965
Au     16.68377     13.47939     14.65412        -0.186902     -0.229886     -0.020858
Au     12.56091     15.62924     14.65350        -0.285193      0.440266      0.001909
Au     16.47793     18.14517     14.65416         0.475648     -0.036883     -0.024208
Au     16.48873     20.65214     15.01695        -0.166291      0.284903      0.001357
Au     18.86045     12.22805     15.01387         0.293210      0.017815     -0.004165
Au     10.36617     14.38102     15.02378        -0.000991     -0.181331     -0.025965
Au     15.24330     15.75888     14.63391         0.000000     -0.000000     -0.000000
