13
# total energy = -29.89708267 eVAu     14.45775     16.26362     13.33456         0.025763      0.100765     -0.071017
Au     11.62854     16.60333     12.86639         0.049146     -0.024597     -0.052605
Au     13.26914     14.80427     11.14433        -0.024075      0.061765      0.031364
Au     11.01365     13.91506     12.50596         0.108379      0.002889      0.103710
Au     17.26973     15.85781     13.85546        -0.042853      0.058949      0.025199
Au     13.58624     13.16431     13.34839        -0.105906     -0.030644     -0.030354
Au     15.85018     14.34824     12.02638         0.001107     -0.023563      0.000353
Au     15.62882     17.65714     15.57748         0.027549     -0.036030     -0.060450
Au     14.26036     15.40915     16.43384         0.107106     -0.005000      0.062198
Au     17.06380     15.50862     16.60692        -0.130265     -0.058769     -0.060641
Au     12.90200     17.57676     15.11786        -0.000129     -0.004286      0.020425
Au     12.06644     14.83151     14.94444        -0.087630     -0.061108     -0.060373
Au     15.78155     13.74322     14.83702         0.071807      0.019630      0.092190
