13
# total energy = -30.37010145 eVAu     13.05325     15.62569     12.16592         0.007533      0.031736      0.002030
Au     15.65765     16.76379     13.02102        -0.052422     -0.007200     -0.087096
Au     11.54522     15.13425     14.38866        -0.003246      0.016959      0.002746
Au     14.34376     14.19316     14.09006         0.018113     -0.053708      0.037364
Au     17.09409     14.41219     13.52393         0.015799      0.012837      0.007829
Au     15.43043     14.55747     11.35078         0.004741      0.013218     -0.006888
Au     16.03778     14.85210     16.13042         0.025256      0.009608      0.033570
Au     15.98206     17.71861     15.51389         0.075053      0.003557      0.100185
Au     14.77907     16.74095     17.88985         0.016970     -0.026750     -0.016345
Au     17.51166     16.69460     17.66326        -0.023501      0.009951     -0.027918
Au     18.34737     16.20986     15.09756        -0.020343     -0.020196      0.012586
Au     13.49433     17.08587     14.71153        -0.071603     -0.007285     -0.068856
Au     13.22472     14.98923     16.55034         0.007652      0.017274      0.010794
