13
# total energy = -25.58870445 eVAu     13.58941     17.82341     14.23348        -0.671255      0.762200      0.272927
Au     17.86815     16.15270     14.23337         0.885709      0.193863      0.278520
Au     14.27693     13.29682     14.24191        -0.316910     -0.964928      0.269362
Au     13.78732     10.65830     14.20844         0.194475      0.790021     -0.010659
Au     11.55589     19.57502     14.21670         0.584331     -0.565093     -0.016444
Au     20.38432     17.04583     14.21033        -0.720869     -0.205692     -0.015649
Au     16.89719     13.69432     15.03434         0.671255     -0.762200     -0.272927
Au     12.61842     15.36503     15.03445        -0.885709     -0.193863     -0.278520
Au     16.20964     18.22091     15.02591         0.316910      0.964928     -0.269362
Au     16.69928     20.85943     15.05938        -0.194475     -0.790021      0.010659
Au     18.93071     11.94271     15.05112        -0.584331      0.565093      0.016444
Au     10.10228     14.47190     15.05749         0.720869      0.205692      0.015649
Au     15.24330     15.75888     14.63391         0.000000     -0.000000     -0.000000
