13
# total energy = -29.90686748 eVAu     14.54384     16.58220     13.08369         0.010174      0.038999     -0.030814
Au     11.69970     16.55401     12.82458        -0.003893      0.036356     -0.018717
Au     13.23829     14.86696     11.20916         0.005948      0.022163     -0.037622
Au     11.03495     13.81639     12.62852        -0.048140      0.001473     -0.042737
Au     17.19929     15.91141     13.89395         0.019591      0.020399     -0.027481
Au     13.59108     13.12850     13.36442        -0.020323      0.024630      0.006696
Au     15.81857     14.38677     12.05495        -0.061705     -0.071217      0.129839
Au     15.66053     17.59707     15.50957         0.010976      0.039907     -0.010832
Au     14.24070     15.39015     16.46214         0.028968     -0.007824     -0.020022
Au     16.98219     15.38289     16.66054         0.051312      0.027625      0.021004
Au     12.93747     17.54811     15.08118         0.000602     -0.153904      0.047783
Au     12.05320     14.81351     14.97861         0.013373     -0.010311     -0.031077
Au     15.77837     13.70509     14.84770        -0.006882      0.031705      0.013979
