13
# total energy = -20.33325383 eVAu     15.71979     13.98765     13.65519        -3.301289     -1.164451     -0.968578
Au     14.65110     18.66141     13.65519         3.301289      1.164451     -0.968578
Au     17.42874     15.79020     13.56162         0.968578      3.301289     -1.164451
Au     12.94212     16.85886     13.56162        -0.968578     -3.301289     -1.164451
Au     12.84855     18.56784     15.36417        -1.164451      0.968578      3.301289
Au     17.52231     14.08122     15.36417         1.164451     -0.968578      3.301289
Au     14.65110     13.98765     18.14181         3.301289     -1.164451      0.968578
Au     15.71979     18.66141     18.14181        -3.301289      1.164451      0.968578
Au     17.42874     16.85886     18.23538         0.968578     -3.301289      1.164451
Au     12.94212     15.79020     18.23538        -0.968578      3.301289      1.164451
Au     17.52231     18.56784     16.43283         1.164451      0.968578     -3.301289
Au     12.84855     14.08122     16.43283        -1.164451     -0.968578     -3.301289
Au     15.18543     16.32453     15.89850        -0.000000      0.000000     -0.000000
