13
# total energy = -30.31056778 eVAu     13.22601     15.94324     12.32662        -0.083112     -0.042396     -0.100900
Au     15.83577     16.67001     13.13837        -0.105500      0.056154     -0.038738
Au     11.58199     15.07379     14.34660         0.026240      0.020715      0.015582
Au     14.30868     14.08975     14.06474         0.032450      0.010385      0.042459
Au     17.06993     14.22820     13.53431         0.046061     -0.006554      0.007879
Au     15.37001     14.51007     11.38451         0.013670      0.023831      0.027069
Au     16.01076     14.88896     16.08930         0.010291      0.029473      0.008613
Au     16.01438     17.92132     15.51569         0.001702     -0.029777      0.008336
Au     14.64998     16.80578     17.72386         0.065888     -0.040667     -0.030234
Au     17.44668     16.76025     17.56867         0.048896     -0.042213      0.069201
Au     18.23069     16.27216     14.92395        -0.050273     -0.021499      0.061592
Au     13.55040     17.01018     14.92490        -0.003016      0.040693     -0.115736
Au     13.20611     14.80408     16.55572        -0.003298      0.001857      0.044876
