13
# total energy = -26.36202155 eVAu     14.99563     16.28832     12.59046         0.289791      0.615770     -1.853059
Au     12.58985     15.10902     13.38765        -1.495304     -0.246920     -1.255028
Au     14.91218     13.57389     13.23984         0.243454     -1.393215     -1.354171
Au     13.28621     17.64786     14.33258        -0.964706      1.587688     -0.542621
Au     16.04681     17.67529     14.77339         1.050773      1.619268     -0.232467
Au     17.05564     15.15600     14.09796         1.780193     -0.234394     -0.714018
Au     16.61710     15.81693     16.77630         1.495304      0.246920      1.255028
Au     14.29477     17.35203     16.92411        -0.243454      1.393215      1.354171
Au     14.21129     14.63760     17.57346        -0.289791     -0.615770      1.853059
Au     14.60346     15.46296     15.08196         0.000000     -0.000000      0.000000
Au     15.92074     13.27809     15.83134         0.964706     -1.587688      0.542621
Au     13.16014     13.25063     15.39056        -1.050773     -1.619268      0.232467
Au     12.15131     15.76992     16.06599        -1.780193      0.234394      0.714018
