13
# total energy = -29.67299633 eVAu     14.35678     18.30574     14.64127        -0.505789      0.592143     -0.006689
Au     18.07983     15.26058     14.61408        -0.914784     -1.488467      0.140503
Au     13.42377     13.72109     14.63616         1.157632     -1.144193     -0.127339
Au     14.43349     11.10924     14.39671         0.019671      0.934787      0.095406
Au     11.64069     18.77866     14.39846         0.578688     -0.219565      0.075196
Au     19.52874     17.28883     14.41390         1.762585      0.885238     -0.186704
Au     16.12982     13.21199     14.62655         0.505789     -0.592143      0.006689
Au     12.40674     16.25715     14.65374         0.914784      1.488467     -0.140503
Au     17.06280     17.79664     14.63166        -1.157632      1.144193      0.127339
Au     16.05311     20.40849     14.87111        -0.019671     -0.934787     -0.095406
Au     18.84591     12.73907     14.86936        -0.578688      0.219565     -0.075196
Au     10.95786     14.22890     14.85392        -1.762585     -0.885238      0.186704
Au     15.24330     15.75888     14.63391        -0.000000      0.000000      0.000000
