13
# total energy = -30.01692284 eVAu     13.04912     16.42781     12.02521         0.040665      0.010391      0.065834
Au     14.84111     17.42928     14.03923         0.011337      0.056064     -0.028571
Au     11.08168     15.23374     13.59112        -0.041974     -0.041956      0.019961
Au     17.49487     16.35870     14.05350         0.009289      0.007568      0.028091
Au     12.01827     17.66662     14.44156        -0.010607     -0.011555     -0.022978
Au     13.48648     13.95941     13.30013         0.032501      0.003342     -0.000406
Au     15.62030     15.48109     12.25914        -0.055195      0.001380     -0.051869
Au     12.98124     15.34647     15.69174         0.022232     -0.029237     -0.077482
Au     16.52030     17.87598     16.33052        -0.041378     -0.034763     -0.053118
Au     13.77940     17.98472     16.51605         0.056475      0.025264      0.038644
Au     17.73901     15.38745     16.60660         0.020166     -0.049856      0.023309
Au     15.13266     15.67200     17.39248        -0.027350      0.010545     -0.009763
Au     15.66524     14.42057     14.93286        -0.016161      0.052812      0.068348
