13
# total energy = -26.50952071 eVAu     14.82966     17.17989     12.04872        -0.425088      0.232500     -1.960292
Au     15.42726     19.22703     13.78986         0.312542      2.217374     -0.620013
Au     17.42040     17.37963     13.09449         1.417099      0.296618     -1.238739
Au     12.96972     17.95143     13.88118        -1.428980      1.083923     -0.390101
Au     13.34184     15.31935     13.43619        -1.074166     -1.022435     -0.623511
Au     16.08375     14.92956     12.91662         0.678447     -1.419997     -0.943701
Au     15.33549     16.77102     14.67645        -0.056107      0.189331      0.019218
Au     17.36283     18.39168     15.61056         1.026662      1.227479      0.439835
Au     14.63049     18.73281     16.37022        -0.518759      1.154224      1.095822
Au     16.16184     16.60401     17.21766         0.122337     -0.508443      1.732618
Au     13.18209     16.43979     16.10160        -1.564460     -0.503046      1.383548
Au     14.86923     14.33469     15.44253         0.016869     -1.759304      0.760867
Au     17.66487     15.63645     15.20289         1.493604     -1.188223      0.344452
