13
# total energy = -29.97159332 eVAu     15.12112     16.68876     13.91690         0.007541      0.015905     -0.013250
Au     12.52011     16.99559     13.15478         0.000530     -0.010522     -0.011639
Au     14.24553     15.21141     11.79391        -0.004901      0.003184      0.012160
Au     14.36629     13.69489     14.11759         0.006515     -0.000350     -0.000248
Au     16.70185     14.37306     12.91030        -0.004809     -0.006718     -0.002607
Au     15.81993     17.62135     16.42309        -0.002232      0.000242     -0.002849
Au     13.90960     16.38632     17.90404        -0.001950     -0.004795     -0.005046
Au     16.62280     15.25562     17.74048        -0.004045     -0.000170     -0.005179
Au     12.70127     15.40789     15.42686         0.000257     -0.002598      0.008706
Au     17.47855     15.89620     15.12204        -0.000502      0.000432      0.004086
Au     13.15919     18.06718     15.68516         0.006095      0.011559      0.010366
Au     14.45450     13.86390     16.85395        -0.001746     -0.012565     -0.002846
Au     16.86201     13.28876     15.57200        -0.000753      0.006397      0.008348
