13
# total energy = -29.98908596 eVAu     13.07896     16.44481     12.03913        -0.074159      0.007740     -0.003997
Au     14.82285     17.33969     14.08390         0.027988      0.130602     -0.064570
Au     11.09791     15.25191     13.60696        -0.052067     -0.062550     -0.016292
Au     17.50825     16.39643     14.03538        -0.081432     -0.072133     -0.018060
Au     12.02068     17.70616     14.42142         0.053998     -0.054902      0.077378
Au     13.49184     13.95961     13.28197        -0.010108     -0.020535      0.064795
Au     15.62541     15.43686     12.24302         0.079372      0.077437      0.022223
Au     12.97750     15.34777     15.68699         0.042998      0.000080     -0.065825
Au     16.49597     17.88334     16.30396         0.069371     -0.012420      0.008938
Au     13.76271     17.97476     16.55923        -0.050094      0.049140     -0.086053
Au     17.72665     15.39062     16.57995         0.034432     -0.040478      0.069181
Au     15.13081     15.68786     17.40276        -0.009392     -0.065124     -0.021976
Au     15.67015     14.42404     14.93545        -0.030906      0.063144      0.034259
