13
# total energy = -29.77815298 eVAu     11.26290     16.87466     12.07644        -0.014177     -0.088414      0.050974
Au     14.00716     16.44944     12.10922         0.000808     -0.003331     -0.045879
Au     16.71913     15.88453     12.30575        -0.023055     -0.086513      0.051580
Au     12.22506     14.24410     12.45802        -0.102215      0.087717     -0.120055
Au     14.86778     13.76451     12.56913         0.135370      0.045742     -0.109964
Au     15.52244     17.35052     14.33836         0.040091      0.018819      0.010279
Au     14.22192     18.63425     16.42967        -0.019066     -0.090203      0.043048
Au     12.35114     16.53574     16.72520         0.026983      0.164306      0.068197
Au     15.20735     16.01744     16.84533         0.027208      0.165294      0.066969
Au     10.91786     15.68346     14.61672        -0.100986      0.088275     -0.119342
Au     12.72846     17.85763     14.22088        -0.029477      0.031572      0.008380
Au     13.63729     15.02325     14.74867        -0.075443     -0.378763      0.206049
Au     16.41684     14.68555     14.84794         0.133961      0.045498     -0.110235
