13
# total energy = -26.91500006 eVAu     17.47697     17.08925     13.87270        -0.540074     -0.372627      0.308408
Au     11.57329     15.01291     13.87270         0.540074      0.372627      0.308408
Au     15.43628     19.00292     13.74568        -0.308408     -0.540074      0.372627
Au     13.61398     13.09924     13.74568         0.308408      0.540074      0.372627
Au     15.56330     16.96223     11.83198        -0.372627     -0.308408      0.540074
Au     13.48696     15.13993     11.83198         0.372627      0.308408      0.540074
Au     11.57329     17.08925     15.69497         0.540074     -0.372627     -0.308408
Au     17.47697     15.01291     15.69497        -0.540074      0.372627     -0.308408
Au     15.43628     13.09924     15.82202        -0.308408      0.540074     -0.372627
Au     13.61398     19.00292     15.82202         0.308408     -0.540074     -0.372627
Au     13.48696     16.96223     17.73569         0.372627     -0.308408     -0.540074
Au     15.56330     15.13993     17.73569        -0.372627      0.308408     -0.540074
Au     14.52513     16.05108     14.78385         0.000000     -0.000000      0.000000
