13
# total energy = -28.21924326 eVAu     16.03716     14.93034     12.25234        -0.321087      0.294369     -0.062422
Au     12.26718     16.38588     12.25234         0.321087     -0.294369     -0.062422
Au     14.87994     17.54310     12.25234        -0.294369     -0.321087     -0.062422
Au     13.42440     13.77312     12.25234         0.294369      0.321087     -0.062422
Au     16.03716     16.38588     16.95263        -0.321087     -0.294369      0.062422
Au     13.42440     17.54310     16.95263         0.294369     -0.321087      0.062422
Au     14.87994     13.77312     16.95263        -0.294369      0.321087      0.062422
Au     12.26718     14.93034     16.95263         0.321087      0.294369      0.062422
Au     14.15217     15.65811     14.60247         0.000000     -0.000000      0.000000
Au     12.22509     17.58519     14.60247         0.001809     -0.001809     -0.000000
Au     16.07925     13.73103     14.60247        -0.001809      0.001809      0.000000
Au     12.22509     13.73103     14.60247         0.001809      0.001809      0.000000
Au     16.07925     17.58519     14.60247        -0.001809     -0.001809     -0.000000
