13
# total energy = -29.96316454 eVAu     15.12926     16.68629     13.92032         0.002855     -0.005530      0.048282
Au     12.51828     16.99240     13.14307         0.015244     -0.005194      0.006920
Au     14.22898     15.20647     11.79449        -0.009194      0.017011     -0.013710
Au     14.30528     13.65352     14.09170         0.014304      0.004392      0.031585
Au     16.65755     14.40105     12.96240         0.047429     -0.012714     -0.042358
Au     15.87985     17.64382     16.43435        -0.053051      0.004052     -0.022226
Au     13.96833     16.38608     17.90286        -0.016823      0.011483     -0.017781
Au     16.60013     15.23645     17.74761         0.005559     -0.022730      0.015903
Au     12.63852     15.36689     15.39508         0.019489      0.020420      0.010453
Au     17.53303     15.94934     15.12781        -0.024586     -0.014395     -0.019023
Au     13.20931     18.00613     15.67989        -0.017882      0.031713     -0.003343
Au     14.41651     13.86409     16.81332         0.034074      0.001379      0.022786
Au     16.87773     13.35838     15.60819        -0.017416     -0.029887     -0.017489
