13
# total energy = -28.79701025 eVAu     14.46044     15.81568     11.82213         0.146383      0.102548     -0.096146
Au     12.09674     15.92747     13.24231         0.021104     -0.031156     -0.020422
Au     15.54272     13.49253     13.12927        -0.066420      0.156827     -0.166403
Au     13.76912     18.34771     13.39097         0.030670     -0.368129      0.017259
Au     12.90720     13.18313     14.16069         0.159895      0.188396      0.112010
Au     16.87179     16.06539     13.24573         0.228797     -0.097155     -0.185059
Au     16.91095     15.30907     15.93653        -0.021104      0.031156      0.020422
Au     13.46494     17.74410     16.04951         0.066420     -0.156827      0.166403
Au     14.54716     15.42095     17.35680        -0.146383     -0.102548      0.096146
Au     14.50386     15.61830     14.58942        -0.000000      0.000000      0.000000
Au     15.23860     12.88889     15.78790        -0.030670      0.368129     -0.017259
Au     16.10061     18.05344     15.01815        -0.159895     -0.188396     -0.112010
Au     12.13590     15.17118     15.93308        -0.228797      0.097155      0.185059
