13
# total energy = -29.44589871 eVAu     15.67788     16.49614     13.93409         0.046400      0.113369     -0.027700
Au     13.75281     15.38663     12.31815         0.022491      0.099604     -0.043427
Au     17.71056     15.73111     12.15826        -0.030511     -0.035069      0.081109
Au     13.37717     12.91829     13.60124        -0.194345     -0.149630     -0.135273
Au     17.76348     14.14673     14.33085         0.006599     -0.011836      0.023327
Au     15.82680     13.56679     12.46165         0.136706     -0.012249      0.023875
Au     16.41945     18.18555     16.09799        -0.050396     -0.023289     -0.078227
Au     14.60681     15.94132     16.86104         0.010327     -0.013957      0.021150
Au     17.29217     15.55559     16.61479        -0.024238     -0.014328     -0.023167
Au     12.78077     15.29966     14.90320         0.008093      0.058556      0.123952
Au     18.40765     17.05473     14.50432        -0.076106     -0.009212     -0.057491
Au     13.75255     17.98180     15.33152         0.044166     -0.075915      0.020726
Au     15.24641     13.75567     15.33905         0.100814      0.073956      0.071146
