13
# total energy = -30.18901589 eVAu     12.92976     13.81862     12.57423         0.281392     -0.176407     -0.098841
Au     16.54061     16.62962     14.01762        -0.010363      0.094573     -0.112212
Au     13.81575     16.97340     13.55275         0.183355     -0.185575      0.328647
Au     15.57436     12.49526     12.09644        -0.069655      0.094070      0.045272
Au     17.64259     14.01194     13.22504        -0.158688      0.055330     -0.024822
Au     15.28277     15.22140     12.07790        -0.126638     -0.021569     -0.085934
Au     14.91290     13.57759     14.53601        -0.019995      0.072714      0.049472
Au     17.41338     17.07637     16.56695        -0.264185      0.114963      0.204662
Au     15.01847     18.33326     15.71543         0.100216     -0.229711      0.023641
Au     17.11454     14.24350     15.97111         0.040899      0.196815      0.010167
Au     12.51857     14.94583     15.00325         0.104043      0.205234      0.096655
Au     19.08327     15.86935     14.76343         0.087604     -0.249166     -0.123753
Au     14.83107     15.68273     16.43151        -0.147984      0.028729     -0.312954
