13
# total energy = -28.36415879 eVAu     14.97057     13.91047     13.82094        -0.000000     -0.077320     -0.367120
Au     14.97057     18.42137     13.82094        -0.000000      0.077320     -0.367120
Au     13.35345     16.16592     13.18261        -0.367120     -0.000000     -0.077320
Au     16.58769     16.16592     13.18261         0.367120     -0.000000     -0.077320
Au     14.97057     16.16592     15.43806        -0.000000     -0.000000      0.000000
Au     14.97057     13.91047     17.05518        -0.000000     -0.077320      0.367120
Au     14.97057     18.42137     17.05518        -0.000000      0.077320      0.367120
Au     13.35345     16.16592     17.69351        -0.367120     -0.000000      0.077320
Au     16.58769     16.16592     17.69351         0.367120     -0.000000      0.077320
Au     12.71512     14.54880     15.43806        -0.077320     -0.367120      0.000000
Au     17.22602     14.54880     15.43806         0.077320     -0.367120      0.000000
Au     12.71512     17.78304     15.43806        -0.077320      0.367120      0.000000
Au     17.22602     17.78304     15.43806         0.077320      0.367120      0.000000
