13
# total energy = -24.89393651 eVAu     16.06668     15.16809     11.49930        -0.180598      0.180598      1.124375
Au     14.11770     17.11710     11.49930         0.180598     -0.180598      1.124375
Au     18.22695     15.16809     13.65957        -1.124375      0.180598      0.180598
Au     11.95743     17.11710     13.65957         1.124375     -0.180598      0.180598
Au     14.11770     19.27737     13.65957         0.180598     -1.124375      0.180598
Au     16.06668     13.00785     13.65957        -0.180598      1.124375      0.180598
Au     15.09219     16.14261     14.63406        -0.000000      0.000000     -0.000000
Au     14.11770     15.16809     17.76882         0.180598      0.180598     -1.124375
Au     16.06668     17.11710     17.76882        -0.180598     -0.180598     -1.124375
Au     18.22695     17.11710     15.60855        -1.124375     -0.180598     -0.180598
Au     11.95743     15.16809     15.60855         1.124375      0.180598     -0.180598
Au     16.06668     19.27737     15.60855        -0.180598     -1.124375     -0.180598
Au     14.11770     13.00785     15.60855         0.180598      1.124375     -0.180598
