13
# total energy = -60.46187943 eVAu     14.42591     18.33911     14.64471        -0.469708     -1.187337      0.131699
Au     18.09907     15.18222     14.61405        -1.684981      0.583482     -0.191727
Au     13.35079     13.76459     14.63897         3.596989     -1.036240      0.073389
Au     14.48786     11.13965     14.41491        -1.068658     -1.782193     -0.211285
Au     11.64250     18.71489     14.41649        -1.451493      2.916949     -0.489380
Au     19.45491     17.30781     14.43509         4.832107      0.367217     -0.145062
Au     16.06069     13.17862     14.62311         0.469708      1.187337     -0.131699
Au     12.38750     16.33551     14.65377         1.684981     -0.583482      0.191727
Au     17.13578     17.75314     14.62885        -3.596989      1.036240     -0.073389
Au     15.99874     20.37808     14.85291         1.068658      1.782193      0.211285
Au     18.84410     12.80284     14.85133         1.451493     -2.916949      0.489380
Au     11.03169     14.20992     14.83273        -4.832107     -0.367217      0.145062
Au     15.24330     15.75888     14.63391         0.000000      0.000000     -0.000000
