13
# total energy = -28.33023357 eVAu     14.35050     15.60353     11.84746         0.059663      0.450738     -0.193132
Au     12.01298     16.03918     13.37654         0.139322     -0.090354     -0.065317
Au     15.63637     13.57580     13.26624         0.496608     -0.405874     -0.427970
Au     13.98073     18.27267     13.28343        -0.160096     -0.420510      0.112809
Au     12.99248     13.25742     13.85175        -0.312694      0.171472      0.543648
Au     16.79145     16.20999     13.12245         0.077590     -0.111576      0.222235
Au     16.99471     15.19736     15.80230        -0.139322      0.090354      0.065317
Au     13.37129     17.66083     15.91254        -0.496608      0.405874      0.427970
Au     14.65710     15.63310     17.33147        -0.059663     -0.450738      0.193132
Au     14.50386     15.61830     14.58942         0.000000      0.000000     -0.000000
Au     15.02699     12.96393     15.89544         0.160096      0.420510     -0.112809
Au     16.01533     17.97915     15.32709         0.312694     -0.171472     -0.543648
Au     12.21624     15.02658     16.05636        -0.077590      0.111576     -0.222235
