13
# total energy = -29.96455787 eVAu     11.17619     16.82867     12.05510        -0.001923     -0.029964      0.018929
Au     14.00691     16.45796     12.15107         0.003631      0.021651      0.007165
Au     16.78573     15.81099     12.29040        -0.011166     -0.028465      0.017721
Au     12.23738     14.30407     12.41038        -0.004489      0.000862     -0.014179
Au     14.88101     13.82436     12.52109         0.005721     -0.000784     -0.014119
Au     15.48444     17.33685     14.32409        -0.012097      0.012032     -0.014973
Au     14.21849     18.63772     16.52947        -0.005184     -0.033289      0.012151
Au     12.35407     16.60724     16.69548        -0.006379      0.012008      0.006066
Au     15.23235     16.08473     16.81581         0.010417      0.010747      0.007633
Au     10.92013     15.75474     14.58651        -0.012021      0.008438     -0.002555
Au     12.75987     17.83061     14.21022         0.016684      0.007671     -0.013721
Au     13.58668     14.77460     14.88392         0.002339      0.014322     -0.008427
Au     16.44206     14.75256     14.81780         0.014467      0.004770     -0.001691
