13
# total energy = -28.08499690 eVAu     15.84767     14.74530     12.11800         0.093939      0.022521     -0.033017
Au     12.45667     16.57092     12.11800        -0.093939     -0.022521     -0.033017
Au     15.06498     17.35361     12.11800        -0.022521      0.093939     -0.033017
Au     13.23936     13.96261     12.11800         0.022521     -0.093939     -0.033017
Au     15.84767     16.57092     17.08697         0.093939     -0.022521      0.033017
Au     13.23936     17.35361     17.08697         0.022521      0.093939      0.033017
Au     15.06498     13.96261     17.08697        -0.022521     -0.093939      0.033017
Au     12.45667     14.74530     17.08697        -0.093939      0.022521      0.033017
Au     14.15217     15.65811     14.60247         0.000000      0.000000     -0.000000
Au     12.26270     17.54758     14.60247        -0.003771      0.003771     -0.000000
Au     16.04164     13.76864     14.60247         0.003771     -0.003771     -0.000000
Au     12.26270     13.76864     14.60247        -0.003771     -0.003771     -0.000000
Au     16.04164     17.54758     14.60247         0.003771      0.003771     -0.000000
