13
# total energy = -25.35822745 eVAu     13.56153     17.86139     14.14882        -0.344231      0.314772      0.528136
Au     17.91304     16.15728     14.14832         0.377722      0.136370      0.530332
Au     14.25852     13.25384     14.15719        -0.096542     -0.460414      0.520245
Au     13.77439     10.61187     14.21407         0.189692      0.812649     -0.042862
Au     11.52229     19.60902     14.22188         0.607590     -0.573928     -0.048910
Au     20.43340     17.05885     14.21630        -0.761820     -0.228473     -0.046420
Au     16.92507     13.65634     15.11900         0.344231     -0.314772     -0.528136
Au     12.57353     15.36045     15.11950        -0.377722     -0.136370     -0.530332
Au     16.22805     18.26389     15.11063         0.096542      0.460414     -0.520245
Au     16.71221     20.90586     15.05375        -0.189692     -0.812649      0.042862
Au     18.96431     11.90871     15.04594        -0.607590      0.573928      0.048910
Au     10.05320     14.45888     15.05152         0.761820      0.228473      0.046420
Au     15.24330     15.75888     14.63391         0.000000      0.000000     -0.000000
