13
# total energy = -32.43846908 eVAu     16.31191     15.54731     12.54805        -0.053670      0.164194      0.036441
Au     11.99243     15.76891     12.54805         0.053670     -0.164194      0.036441
Au     14.26297     17.81785     12.54805        -0.164194     -0.053670      0.036441
Au     14.04137     13.49837     12.54805         0.164194      0.053670      0.036441
Au     16.31191     15.76891     16.65692        -0.053670     -0.164194     -0.036441
Au     14.04137     17.81785     16.65692         0.164194     -0.053670     -0.036441
Au     14.26297     13.49837     16.65692        -0.164194      0.053670     -0.036441
Au     11.99243     15.54731     16.65692         0.053670      0.164194     -0.036441
Au     14.15217     15.65811     14.60247        -0.000000     -0.000000      0.000000
Au     12.14975     17.66053     14.60247         0.626914     -0.626914      0.000000
Au     16.15459     13.65569     14.60247        -0.626914      0.626914      0.000000
Au     12.14975     13.65569     14.60247         0.626914      0.626914      0.000000
Au     16.15459     17.66053     14.60247        -0.626914     -0.626914      0.000000
