13
# total energy = -26.54661958 eVAu     15.90737     14.77553     11.72085        -0.639459      0.143766      0.693535
Au     12.39697     16.54069     11.72085         0.639459     -0.143766      0.693535
Au     15.03475     17.41331     11.72085        -0.143766     -0.639459      0.693535
Au     13.26959     13.90291     11.72085         0.143766      0.639459      0.693535
Au     15.90737     16.54069     17.48412        -0.639459     -0.143766     -0.693535
Au     13.26959     17.41331     17.48412         0.143766     -0.639459     -0.693535
Au     15.03475     13.90291     17.48412        -0.143766      0.639459     -0.693535
Au     12.39697     14.77553     17.48412         0.639459      0.143766     -0.693535
Au     14.15217     15.65811     14.60247         0.000000      0.000000     -0.000000
Au     12.32164     17.48864     14.60247         0.095621     -0.095621      0.000000
Au     15.98270     13.82758     14.60247        -0.095621      0.095621     -0.000000
Au     12.32164     13.82758     14.60247         0.095621      0.095621     -0.000000
Au     15.98270     17.48864     14.60247        -0.095621     -0.095621      0.000000
