13
# total energy = -29.86863291 eVAu     15.98818     17.73900     13.47267        -0.005058     -0.120026      0.007393
Au     14.42580     15.53972     13.04361         0.011963      0.059358     -0.038197
Au     17.25530     15.52948     12.48442        -0.088787      0.170625      0.083881
Au     13.23318     13.02140     13.36771        -0.022401     -0.018062      0.037397
Au     17.88790     13.72277     14.40775         0.108273     -0.033398      0.054384
Au     15.87806     13.11316     12.58522        -0.015863     -0.108854     -0.011502
Au     16.33379     18.44991     16.08246        -0.029275     -0.014037      0.009099
Au     14.48375     15.60688     17.11722         0.103554     -0.030510     -0.127800
Au     16.97294     15.78576     16.00577        -0.090589      0.011032     -0.013548
Au     12.56384     15.06642     15.10914        -0.027998      0.031566     -0.012667
Au     18.56723     17.17656     14.34604         0.012950     -0.001169     -0.010681
Au     13.84060     17.51590     15.20439         0.068880      0.013783      0.022923
Au     15.18395     13.75304     15.22975        -0.025650      0.039692     -0.000682
