13
# total energy = -29.99363569 eVAu     14.34486     18.31633     14.64104        -0.435079      0.534186     -0.005517
Au     18.06236     15.23643     14.61669        -0.556531     -0.532123      0.067241
Au     13.44585     13.69844     14.63381         0.452142     -0.727106     -0.069487
Au     14.43216     11.12635     14.39792         0.026022      0.765005      0.080671
Au     11.65173     18.77653     14.39927         0.444386     -0.043449      0.051801
Au     19.56202     17.30444     14.40985         0.790077      0.423685     -0.082317
Au     16.14174     13.20140     14.62678         0.435079     -0.534186      0.005517
Au     12.42421     16.28130     14.65113         0.556531      0.532123     -0.067241
Au     17.04072     17.81929     14.63401        -0.452142      0.727106      0.069487
Au     16.05444     20.39138     14.86990        -0.026022     -0.765005     -0.080671
Au     18.83487     12.74120     14.86855        -0.444386      0.043449     -0.051801
Au     10.92458     14.21329     14.85797        -0.790077     -0.423685      0.082317
Au     15.24330     15.75888     14.63391         0.000000      0.000000      0.000000
