13
# total energy = -30.10829619 eVAu     11.95196     16.06629     12.84210        -0.064394     -0.005097      0.034244
Au     16.50764     17.01097     13.34749        -0.071503      0.072796      0.003089
Au     13.85956     17.62415     14.03007         0.027529      0.084050     -0.029546
Au     12.35756     13.38963     13.54856        -0.026244     -0.032433     -0.055417
Au     17.06056     14.40527     14.11955        -0.035443      0.010483      0.030820
Au     14.54532     15.07473     12.86490         0.109106     -0.040849     -0.091405
Au     15.58725     15.28773     16.31388         0.003062     -0.063148      0.053946
Au     15.99072     18.70633     15.39937         0.076491      0.051548     -0.000001
Au     13.93997     17.39327     16.89420        -0.018615     -0.031865     -0.038890
Au     16.58193     17.51596     17.80991        -0.013042      0.045857      0.052846
Au     12.89716     15.33022     15.43197         0.012843     -0.033564      0.044179
Au     18.00323     16.48329     15.69732         0.062670     -0.002231     -0.049091
Au     14.73266     13.07720     14.78450        -0.062461     -0.055545      0.045226
