13
# total energy = -29.90991859 eVAu     14.48619     16.36930     13.25202         0.020083      0.073281     -0.061826
Au     11.65154     16.57532     12.85781         0.016210      0.063602     -0.046370
Au     13.25450     14.81778     11.17518         0.019131      0.058722     -0.048298
Au     11.02468     13.88516     12.54743        -0.023927     -0.037711      0.017407
Au     17.24156     15.86825     13.87797         0.019436      0.061015     -0.051789
Au     13.58508     13.15167     13.34808         0.036398     -0.004504      0.044216
Au     15.84907     14.36808     12.01932        -0.067646     -0.043435      0.112439
Au     15.63811     17.62508     15.56006         0.017406      0.066101     -0.046306
Au     14.25865     15.40747     16.44636        -0.051131     -0.033539     -0.017010
Au     17.03310     15.46808     16.62009         0.009950     -0.030987      0.042699
Au     12.91252     17.58679     15.10147         0.013430     -0.132407      0.025466
Au     12.05629     14.82748     14.95217         0.041461     -0.010115      0.043190
Au     15.78690     13.73259     14.84107        -0.050800     -0.030025     -0.013818
