13
# total energy = -26.37794034 eVAu     14.99420     16.28878     12.58598         0.284909      0.602436     -1.820006
Au     12.58829     15.11198     13.38471        -1.469304     -0.255806     -1.237362
Au     14.91629     13.57267     13.23969         0.228034     -1.378056     -1.342895
Au     13.28651     17.64687     14.33253        -0.959898      1.591801     -0.546114
Au     16.04627     17.67400     14.77347         1.051407      1.611941     -0.225113
Au     17.05362     15.15597     14.09805         1.785609     -0.223941     -0.716939
Au     16.61866     15.81397     16.77924         1.469304      0.255806      1.237362
Au     14.29066     17.35325     16.92426        -0.228034      1.378056      1.342895
Au     14.21272     14.63714     17.57794        -0.284909     -0.602436      1.820006
Au     14.60346     15.46296     15.08196         0.000000      0.000000     -0.000000
Au     15.92044     13.27908     15.83139         0.959898     -1.591801      0.546114
Au     13.16068     13.25192     15.39048        -1.051407     -1.611941      0.225113
Au     12.15333     15.76995     16.06590        -1.785609      0.223941      0.716939
