13
# total energy = -29.47441839 eVAu     15.68892     16.58129     13.88708        -0.007285      0.074670     -0.058993
Au     13.78166     15.39726     12.34624         0.011327     -0.016573      0.027068
Au     17.72995     15.71027     12.18090        -0.037890     -0.075915     -0.000492
Au     13.33691     12.88650     13.57375         0.024475      0.121319     -0.057045
Au     17.75476     14.12230     14.35556         0.065043      0.000903      0.009985
Au     15.84611     13.54791     12.46717        -0.025909     -0.043406      0.062875
Au     16.40752     18.19244     16.07068         0.028357      0.021502      0.021325
Au     14.61273     15.90869     16.87392         0.008720      0.034991      0.055408
Au     17.30139     15.56920     16.61635        -0.033961     -0.000786     -0.040812
Au     12.77374     15.29543     14.92907         0.027191     -0.072097      0.021360
Au     18.38990     17.06494     14.48195         0.029436      0.020886      0.019442
Au     13.75820     17.96893     15.36525        -0.043282     -0.073560      0.002809
Au     15.23270     13.77484     15.30823        -0.046223      0.008065     -0.062931
