13
# total energy = -28.44897447 eVAu     14.38525     15.65894     11.84594         0.045991      0.394286     -0.173326
Au     12.02873     16.00396     13.32422         0.177540     -0.074992     -0.004260
Au     15.59117     13.55150     13.23648         0.404580     -0.278128     -0.390855
Au     13.90660     18.33326     13.31236        -0.084334     -0.497663      0.108854
Au     12.96402     13.20615     13.92764        -0.209579      0.285112      0.536123
Au     16.81780     16.16124     13.14828         0.063206     -0.064073      0.234476
Au     16.97896     15.23258     15.85462        -0.177540      0.074992      0.004260
Au     13.41649     17.68513     15.94230        -0.404580      0.278128      0.390855
Au     14.62235     15.57769     17.33299        -0.045991     -0.394286      0.173326
Au     14.50386     15.61830     14.58942         0.000000      0.000000      0.000000
Au     15.10112     12.90334     15.86651         0.084334      0.497663     -0.108854
Au     16.04379     18.03042     15.25120         0.209579     -0.285112     -0.536123
Au     12.18989     15.07533     16.03053        -0.063206      0.064073     -0.234476
