13
# total energy = -28.57683821 eVAu     14.97057     13.98204     13.73050        -0.000000     -0.290672     -0.418243
Au     14.97057     18.34980     13.73050         0.000000      0.290672     -0.418243
Au     13.26301     16.16592     13.25418        -0.418243     -0.000000     -0.290672
Au     16.67813     16.16592     13.25418         0.418243      0.000000     -0.290672
Au     14.97057     16.16592     15.43806         0.000000      0.000000      0.000000
Au     14.97057     13.98204     17.14562         0.000000     -0.290672      0.418243
Au     14.97057     18.34980     17.14562        -0.000000      0.290672      0.418243
Au     13.26301     16.16592     17.62194        -0.418243      0.000000      0.290672
Au     16.67813     16.16592     17.62194         0.418243      0.000000      0.290672
Au     12.78669     14.45836     15.43806        -0.290672     -0.418243     -0.000000
Au     17.15445     14.45836     15.43806         0.290672     -0.418243      0.000000
Au     12.78669     17.87348     15.43806        -0.290672      0.418243      0.000000
Au     17.15445     17.87348     15.43806         0.290672      0.418243     -0.000000
