13
# total energy = -30.13338348 eVAu     11.95292     16.06198     12.88411        -0.021109      0.028359      0.012066
Au     16.46926     17.04194     13.35250        -0.004235     -0.022721     -0.025909
Au     13.85305     17.65513     14.01967         0.029797      0.023040      0.027702
Au     12.34270     13.39060     13.48878         0.033969     -0.041413     -0.049274
Au     16.99257     14.42168     14.14364        -0.014319      0.021367     -0.027692
Au     14.56882     15.05844     12.80755        -0.017892     -0.013868      0.024171
Au     15.62338     15.20125     16.43455        -0.012956     -0.010865      0.012182
Au     16.02441     18.76577     15.39131        -0.014428      0.011264     -0.014643
Au     13.98756     17.37504     16.83865         0.001506      0.019729      0.005532
Au     16.57643     17.56036     17.81132         0.017080     -0.019675      0.014751
Au     12.97537     15.28284     15.42056        -0.015958     -0.000097     -0.043547
Au     17.97323     16.49356     15.69184        -0.001038     -0.004994      0.001286
Au     14.67583     13.05644     14.79932         0.019584      0.009874      0.063375
