13
# total energy = -29.04438991 eVAu     14.74135     17.35545     11.69208        -0.159632     -0.018308      0.316565
Au     15.68354     19.69080     13.15508         0.188753     -0.179016      0.065964
Au     17.05157     17.21780     13.27622        -0.152225     -0.600461     -0.057454
Au     13.68854     18.01389     14.24501        -0.318034      0.275833     -2.688215
Au     13.13609     15.59224     12.90577         0.098197     -0.057938      0.155803
Au     15.85926     14.70036     13.30424        -0.057423      0.200619     -0.015140
Au     15.53085     15.95769     15.65934         0.873208     -0.642357     -0.180121
Au     16.95632     18.88953     15.38308        -0.077471      0.400148      0.011094
Au     14.48268     18.15585     16.59773         0.929081      1.104192      2.649497
Au     17.39846     17.63329     17.60825        -0.202066     -0.277897     -0.080182
Au     12.82371     16.13823     15.86629        -0.597729     -1.033376     -0.030434
Au     13.62673     13.61662     14.70436         0.007293      0.368466     -0.072758
Au     18.30036     15.93560     15.39154        -0.531952      0.460094     -0.074620
