13
# total energy = -30.37685955 eVAu     13.06005     15.59909     12.17877        -0.029458     -0.001497     -0.035139
Au     15.61932     16.78755     12.98788         0.040400     -0.016276     -0.037221
Au     11.53375     15.14554     14.39019        -0.009865      0.001954      0.011181
Au     14.35278     14.16585     14.10677         0.014829      0.004088      0.019229
Au     17.08712     14.44979     13.52133         0.003220      0.028517      0.006475
Au     15.43653     14.56511     11.33935         0.015289     -0.000758     -0.007125
Au     16.04673     14.84283     16.14386         0.002127     -0.005228      0.006291
Au     15.97504     17.67971     15.51281         0.012611     -0.011414      0.019851
Au     14.79774     16.72067     17.92184        -0.014043     -0.019861     -0.012197
Au     17.51627     16.70016     17.66841         0.011590      0.013822      0.016438
Au     18.37030     16.18967     15.12651        -0.011559     -0.019668     -0.016825
Au     13.47557     17.10612     14.66268        -0.045316     -0.000575      0.030233
Au     13.23017     15.02570     16.53682         0.010175      0.026895     -0.001191
