13
# total energy = -29.52187672 eVAu     15.04096     16.05263     14.62167        -0.102034      0.325218     -0.204892
Au     12.57743     16.97750     13.17544         0.021572     -0.023160      0.000722
Au     14.24369     15.22720     11.89634        -0.049923      0.008466     -0.017875
Au     14.22496     13.46083     13.99393        -0.053916      0.109007     -0.038820
Au     16.72002     14.57533     12.92530        -0.034893     -0.164886     -0.042056
Au     16.03982     17.89905     16.47949         0.019453     -0.180602     -0.041505
Au     13.98735     16.43481     17.68733         0.108023     -0.023843      0.032788
Au     16.56049     15.33087     17.53254        -0.102734     -0.025023      0.265154
Au     12.44147     15.33714     15.35541         0.154794     -0.002182     -0.039842
Au     17.77678     16.06216     15.13666         0.000986      0.113379      0.023554
Au     13.30485     18.08229     15.60881        -0.095378     -0.095042     -0.018336
Au     14.30373     13.80713     16.74866        -0.048173      0.063783      0.124175
Au     16.74120     13.50396     15.45949         0.182222     -0.105116     -0.043068
