13
# total energy = -29.50477695 eVAu     15.69310     16.70462     13.80547         0.093832      0.138346      0.018173
Au     13.82144     15.40330     12.39148        -0.037736     -0.007451     -0.044496
Au     17.73561     15.65710     12.19898        -0.061746     -0.040464      0.074397
Au     13.29588     12.89791     13.51426         0.026183      0.059395     -0.011115
Au     17.77104     14.09223     14.39550         0.037026     -0.010947     -0.062966
Au     15.85700     13.50984     12.49883         0.017893     -0.084023     -0.013040
Au     16.40958     18.21226     16.04923        -0.046416     -0.015037      0.042555
Au     14.62757     15.87997     16.91479        -0.058399      0.040958      0.011688
Au     17.29527     15.58064     16.60067        -0.001411      0.056337     -0.040709
Au     12.77735     15.26159     14.96587        -0.055770     -0.037364      0.051847
Au     18.38454     17.08917     14.46692         0.022876     -0.057442     -0.016340
Au     13.74187     17.92859     15.40085         0.039127     -0.095853     -0.005373
Au     15.20427     13.80279     15.25330         0.024540      0.053545     -0.004621
