13
# total energy = -28.63832263 eVAu     14.76801     17.07935     11.81437        -0.048427      0.319451     -0.293676
Au     15.66438     19.49295     13.60068        -0.033273     -0.062774     -0.283466
Au     17.18839     17.21051     13.04863         0.279878      1.097844     -0.052380
Au     13.20704     18.02260     13.88958         0.081967      0.410645     -0.143373
Au     13.12909     15.37349     12.95290         0.006943     -0.437275      0.436476
Au     16.18246     14.81400     13.25595        -0.605952     -0.735625      0.229586
Au     15.19855     16.46871     15.16805         1.825171     -1.420209     -0.989472
Au     17.23320     18.84971     15.61099         0.068626     -0.062799     -0.223625
Au     14.66517     18.37376     16.68927        -0.490274      1.007745      0.882185
Au     17.34380     17.16414     17.63337        -0.085549      0.027931      0.028204
Au     12.73599     16.27139     15.86056        -0.915195     -0.252723      0.466267
Au     13.92547     13.77023     15.01632        -0.014796      0.262838     -0.428482
Au     18.03793     16.00650     15.24830        -0.069119     -0.155047      0.371756
