13
# total energy = -29.81578736 eVAu     15.97616     17.78659     13.39598         0.041819     -0.018593      0.070215
Au     14.38130     15.58506     12.96619        -0.000653     -0.120537      0.073529
Au     17.20481     15.54145     12.49506         0.030421     -0.053353     -0.026316
Au     13.21652     13.06124     13.29985         0.071326      0.044898      0.058267
Au     17.88005     13.76464     14.46613        -0.004715     -0.047277     -0.052435
Au     15.88756     13.08449     12.58554        -0.027482      0.063898      0.018108
Au     16.34698     18.38918     16.08503         0.020146     -0.015126     -0.036127
Au     14.51204     15.67218     17.16131        -0.065715     -0.038563     -0.007614
Au     17.01349     15.74948     16.12212         0.021871      0.077540     -0.059128
Au     12.59373     14.98037     15.19245         0.032618      0.044244     -0.065582
Au     18.52036     17.14986     14.35707        -0.032350      0.013825      0.020617
Au     13.90958     17.43024     15.13579        -0.078471      0.025354      0.051832
Au     15.17192     13.82523     15.19364        -0.008814      0.023691     -0.045366
