13
# total energy = -28.09556145 eVAu     14.71331     17.14232     11.92238        -0.010057      0.079545     -0.409188
Au     15.53058     19.47795     13.75588         0.210291     -0.041541      0.117921
Au     17.53425     17.35578     13.01864         0.053365     -0.118743     -0.106197
Au     12.90015     18.00155     13.81421        -0.244964      0.167685      0.080027
Au     13.35525     15.27721     13.44286        -0.255945     -0.338217     -0.027436
Au     16.13793     14.86475     12.85730         0.181838     -0.058636     -0.100334
Au     15.31528     16.80351     14.64145        -0.016147      0.152518      0.484398
Au     17.34872     18.46661     15.59356        -0.069881      0.150914     -0.010246
Au     14.59820     18.76695     16.50167        -0.048001     -0.232661      0.014857
Au     16.25800     16.58922     17.32474         0.164748      0.134928      0.198021
Au     13.00418     16.40649     16.19688         0.064612      0.178835     -0.156783
Au     14.81816     14.16635     15.44962        -0.173409     -0.153307     -0.051390
Au     17.76545     15.57865     15.26978         0.143550      0.078680     -0.033650
