13
# total energy = -25.67181752 eVAu     17.58512     17.11476     13.84657        -0.980460     -0.401098      0.267930
Au     11.46514     14.98740     13.84657         0.980460      0.401098      0.267930
Au     15.46241     19.11107     13.72017        -0.267930     -0.980460      0.401098
Au     13.58785     12.99109     13.72017         0.267930      0.980460      0.401098
Au     15.58881     16.98836     11.72383        -0.401098     -0.267930      0.980460
Au     13.46145     15.11380     11.72383         0.401098      0.267930      0.980460
Au     11.46514     17.11476     15.72110         0.980460     -0.401098     -0.267930
Au     17.58512     14.98740     15.72110        -0.980460      0.401098     -0.267930
Au     15.46241     12.99109     15.84753        -0.267930      0.980460     -0.401098
Au     13.58785     19.11107     15.84753         0.267930     -0.980460     -0.401098
Au     13.46145     16.98836     17.84384         0.401098     -0.267930     -0.980460
Au     15.58881     15.11380     17.84384        -0.401098      0.267930     -0.980460
Au     14.52513     16.05108     14.78385         0.000000     -0.000000      0.000000
