13
# total energy = -28.27302181 eVAu     16.07731     15.01288     12.28924        -0.381228      0.291301     -0.009347
Au     12.22703     16.30334     12.28924         0.381228     -0.291301     -0.009347
Au     14.79740     17.58325     12.28924        -0.291301     -0.381228     -0.009347
Au     13.50694     13.73297     12.28924         0.291301      0.381228     -0.009347
Au     16.07731     16.30334     16.91573        -0.381228     -0.291301      0.009347
Au     13.50694     17.58325     16.91573         0.291301     -0.381228      0.009347
Au     14.79740     13.73297     16.91573        -0.291301      0.381228      0.009347
Au     12.22703     15.01288     16.91573         0.381228      0.291301      0.009347
Au     14.15217     15.65811     14.60247        -0.000000     -0.000000     -0.000000
Au     12.21210     17.59818     14.60247         0.076806     -0.076806     -0.000000
Au     16.09224     13.71804     14.60247        -0.076806      0.076806     -0.000000
Au     12.21210     13.71804     14.60247         0.076806      0.076806      0.000000
Au     16.09224     17.59818     14.60247        -0.076806     -0.076806     -0.000000
