13
# total energy = -30.13900071 eVAu     12.99946     13.97592     12.62426         0.018285     -0.065512     -0.090913
Au     16.55680     16.66833     13.93097         0.031400      0.013530     -0.019221
Au     13.84641     16.92354     13.35379         0.045654     -0.106346      0.153571
Au     15.46683     12.51162     12.13448        -0.009732     -0.006254     -0.057541
Au     17.59680     13.98656     13.25528        -0.089348     -0.005136     -0.085775
Au     15.40367     15.23037     11.93781        -0.016669     -0.028769     -0.068439
Au     14.91668     13.63500     14.56732         0.189985      0.059551      0.145883
Au     17.35323     17.14718     16.51098        -0.120388      0.002602      0.138481
Au     14.83193     17.99798     15.72068         0.018039      0.049469      0.020113
Au     17.17352     14.32796     15.99327        -0.022480      0.036708     -0.008131
Au     12.62359     15.15806     15.06954        -0.113192      0.050069      0.041628
Au     19.07456     15.86593     14.73528         0.106382     -0.083253     -0.049450
Au     14.83456     15.45044     16.69801        -0.037935      0.083341     -0.120206
