13
# total energy = -24.10065614 eVAu     13.53168     17.92154     13.99801        -0.275863      0.076095      0.871106
Au     17.97159     16.14651     13.99639         0.234179      0.222809      0.872852
Au     14.22017     13.19985     14.01085         0.073792     -0.286569      0.852513
Au     13.74994     10.48986     14.22874         0.220406      1.107162     -0.117009
Au     11.43028     19.69251     14.23962         0.842646     -0.748537     -0.128216
Au     20.56122     17.10221     14.23308        -1.098293     -0.374191     -0.128538
Au     16.95492     13.59619     15.26981         0.275863     -0.076095     -0.871106
Au     12.51498     15.37122     15.27143        -0.234179     -0.222809     -0.872852
Au     16.26640     18.31788     15.25697        -0.073792      0.286569     -0.852513
Au     16.73666     21.02787     15.03908        -0.220406     -1.107162      0.117009
Au     19.05632     11.82522     15.02820        -0.842646      0.748537      0.128216
Au      9.92538     14.41552     15.03474         1.098293      0.374191      0.128538
Au     15.24330     15.75888     14.63391         0.000000      0.000000      0.000000
