13
# total energy = -30.08181408 eVAu     12.97275     14.10433     12.73055         0.075983     -0.018197     -0.012290
Au     16.60151     16.68600     13.85422         0.004590      0.008419      0.003280
Au     13.90459     16.76621     13.15354         0.018074      0.056436      0.011825
Au     15.26214     12.57889     12.10324         0.034530     -0.007531      0.034073
Au     17.57817     13.94050     13.27867        -0.033557      0.038841     -0.004851
Au     15.62803     15.23762     11.75454        -0.046139     -0.019372      0.028431
Au     14.97805     13.76260     14.58035        -0.034077     -0.004899     -0.008905
Au     17.24232     17.23875     16.46543         0.010723     -0.024392      0.009657
Au     14.63319     17.63223     15.70059         0.000184      0.026660     -0.006094
Au     17.22966     14.43172     16.02681         0.017355     -0.028949     -0.008866
Au     12.69959     15.40652     15.18524        -0.006859     -0.038419      0.004688
Au     19.09894     15.88758     14.74392         0.000384     -0.017755     -0.039307
Au     14.84911     15.20593     16.95457        -0.041192      0.029158     -0.011641
