13
# total energy = -26.50301778 eVAu     13.71321     18.02811     14.61197         0.089413      0.239269     -0.055906
Au     17.95588     15.93605     14.61393         0.494708      0.094975     -0.101507
Au     14.03743     13.29708     14.61395        -0.131958     -0.016146     -0.052855
Au     13.93196     10.73933     14.21532         0.135258      0.257784      0.074000
Au     11.55328     19.40892     14.22002         0.170302     -0.260072      0.076306
Au     20.26362     17.14285     14.20914        -0.563416     -0.150082      0.121113
Au     16.77339     13.48962     14.65585        -0.089413     -0.239269      0.055906
Au     12.53069     15.58168     14.65389        -0.494708     -0.094975      0.101507
Au     16.44914     18.22065     14.65387         0.131958      0.016146      0.052855
Au     16.55464     20.77840     15.05250        -0.135258     -0.257784     -0.074000
Au     18.93332     12.10881     15.04780        -0.170302      0.260072     -0.076306
Au     10.22298     14.37488     15.05868         0.563416      0.150082     -0.121113
Au     15.24330     15.75888     14.63391         0.000000      0.000000      0.000000
