13
# total energy = -30.07683953 eVAu     12.96506     14.09872     12.73011         0.079302      0.015535      0.014437
Au     16.60249     16.68869     13.86024        -0.028011     -0.014808     -0.077889
Au     13.90143     16.76109     13.14913         0.044798      0.025911     -0.010387
Au     15.25669     12.58278     12.09906         0.031836     -0.037295      0.036693
Au     17.57555     13.93813     13.28003        -0.003065      0.037941      0.004237
Au     15.63851     15.23422     11.75491        -0.073187      0.043481      0.044387
Au     14.97439     13.77232     14.57464        -0.015767     -0.011308      0.001609
Au     17.24470     17.24217     16.45802         0.002919     -0.004621      0.072828
Au     14.63255     17.62171     15.69684        -0.011077      0.063945      0.008579
Au     17.23542     14.42989     16.02493        -0.039635     -0.048866      0.010520
Au     12.70215     15.41405     15.19369        -0.028009     -0.055763     -0.035793
Au     19.09723     15.89300     14.75498         0.051722     -0.023893     -0.078959
Au     14.85187     15.20211     16.95509        -0.011826      0.009741      0.009736
