13
# total energy = -30.06149758 eVAu     12.96168     14.08115     12.73442        -0.027707      0.062063     -0.027954
Au     16.60574     16.70147     13.85831         0.012810     -0.000746     -0.014956
Au     13.89821     16.75130     13.12322        -0.029995      0.036285      0.103965
Au     15.25018     12.57532     12.09689         0.053023      0.018082      0.053740
Au     17.56736     13.94900     13.29430         0.072437     -0.009691     -0.042885
Au     15.64872     15.23557     11.76930        -0.063508     -0.039610     -0.073194
Au     14.95409     13.82490     14.55562         0.098935     -0.098223      0.041292
Au     17.25324     17.25098     16.45605        -0.059558     -0.085989      0.014997
Au     14.62665     17.60234     15.68395         0.034911      0.028559      0.039013
Au     17.23793     14.39341     16.01928         0.027864      0.101934      0.025745
Au     12.69597     15.42279     15.20942        -0.006778     -0.008176     -0.100588
Au     19.10965     15.90514     14.76601        -0.089100     -0.076174     -0.036316
Au     14.86864     15.18551     16.96489        -0.023335      0.071686      0.017142
