13
# total energy = -30.10914320 eVAu     13.01769     13.99538     12.63348        -0.172788     -0.066336     -0.193246
Au     16.54867     16.67331     13.91542         0.149790      0.028659      0.074489
Au     13.85340     16.92078     13.32426        -0.052135     -0.045278      0.164216
Au     15.45294     12.51635     12.14586         0.048339     -0.061968     -0.136599
Au     17.59524     13.98488     13.26603        -0.112626     -0.028966     -0.133009
Au     15.41286     15.23444     11.92789         0.062483     -0.079359     -0.163571
Au     14.90062     13.63827     14.55767         0.392305      0.089182      0.380653
Au     17.35011     17.16042     16.50312        -0.132210     -0.026195      0.096803
Au     14.81103     17.95141     15.72114         0.001219      0.079340      0.022434
Au     17.18744     14.33631     15.99418        -0.188515      0.029341      0.009472
Au     12.64569     15.18243     15.07796        -0.182605      0.086745      0.056641
Au     19.06985     15.86386     14.73286         0.132754     -0.025698     -0.057957
Au     14.83253     15.42104     16.73180         0.053988      0.020531     -0.120325
