13
# total energy = -29.95669562 eVAu     15.13308     16.68405     13.93221        -0.010407     -0.052196     -0.037733
Au     12.52372     16.99644     13.14374         0.003281     -0.021137      0.004032
Au     14.22337     15.21560     11.79160         0.029545     -0.018006      0.060781
Au     14.28277     13.63192     14.09255         0.091152      0.068765     -0.064055
Au     16.65240     14.40930     12.96850        -0.058478     -0.025946     -0.003255
Au     15.88597     17.65702     16.43178         0.058526     -0.030038      0.006423
Au     13.98758     16.39273     17.89265        -0.039289     -0.028455      0.024948
Au     16.59108     15.21906     17.75976         0.002500      0.031072     -0.021413
Au     12.62164     15.34803     15.39377         0.027538      0.060450     -0.005375
Au     17.54769     15.96827     15.12055        -0.039566     -0.013861      0.032963
Au     13.22691     17.99108     15.66712        -0.089920      0.038697      0.009416
Au     14.40880     13.85423     16.80797         0.015718      0.032874      0.039256
Au     16.87775     13.38320     15.61888         0.009402     -0.042220     -0.045988
