13
# total energy = -26.12022118 eVAu     17.55115     17.10674     13.85478        -0.874464     -0.388960      0.272702
Au     11.49911     14.99542     13.85478         0.874464      0.388960      0.272702
Au     15.45420     19.07710     13.72819        -0.272702     -0.874464      0.388960
Au     13.59606     13.02506     13.72819         0.272702      0.874464      0.388960
Au     15.58079     16.98015     11.75780        -0.388960     -0.272702      0.874464
Au     13.46947     15.12201     11.75780         0.388960      0.272702      0.874464
Au     11.49911     17.10674     15.71289         0.874464     -0.388960     -0.272702
Au     17.55115     14.99542     15.71289        -0.874464      0.388960     -0.272702
Au     15.45420     13.02506     15.83951        -0.272702      0.874464     -0.388960
Au     13.59606     19.07710     15.83951         0.272702     -0.874464     -0.388960
Au     13.46947     16.98015     17.80987         0.388960     -0.272702     -0.874464
Au     15.58079     15.12201     17.80987        -0.388960      0.272702     -0.874464
Au     14.52513     16.05108     14.78385        -0.000000     -0.000000     -0.000000
