13
# total energy = -29.82519017 eVAu     15.98390     17.78502     13.40753        -0.013203     -0.079209      0.045293
Au     14.39774     15.56246     13.00534         0.020376      0.023864     -0.012341
Au     17.21345     15.54145     12.48297         0.025940      0.015936      0.012389
Au     13.21087     13.05401     13.29793         0.041971     -0.005558      0.067182
Au     17.88011     13.75954     14.46389         0.014822     -0.040154     -0.042011
Au     15.88314     13.10512     12.59286        -0.020828     -0.029724     -0.039406
Au     16.34336     18.39506     16.08127        -0.005964      0.032572     -0.003202
Au     14.51112     15.65999     17.15683        -0.027853     -0.034702     -0.019077
Au     17.00249     15.76177     16.09282        -0.022702     -0.002411     -0.016797
Au     12.60629     14.99620     15.17423        -0.064147      0.020798     -0.041323
Au     18.52392     17.15285     14.35446         0.024042      0.020151     -0.018221
Au     13.89298     17.44984     15.14295        -0.012895      0.043265      0.036730
Au     15.16514     13.79668     15.20307         0.040440      0.035173      0.030783
