13
# total energy = -30.16191384 eVAu     14.32609     18.33599     14.64073        -0.311186      0.411115     -0.004083
Au     18.03649     15.20777     14.62007        -0.197686      0.455097     -0.006186
Au     13.47346     13.66575     14.63047        -0.274420     -0.179023     -0.002313
Au     14.43162     11.15506     14.40049         0.034556      0.415111      0.047695
Au     11.66919     18.77542     14.40085         0.220560      0.193361      0.016632
Au     19.60609     17.32563     14.40483        -0.144970     -0.006312      0.018699
Au     16.16051     13.18174     14.62709         0.311186     -0.411115      0.004083
Au     12.45008     16.30996     14.64775         0.197686     -0.455097      0.006186
Au     17.01311     17.85198     14.63735         0.274420      0.179023      0.002313
Au     16.05498     20.36267     14.86733        -0.034556     -0.415111     -0.047695
Au     18.81741     12.74231     14.86697        -0.220560     -0.193361     -0.016632
Au     10.88051     14.19210     14.86299         0.144970      0.006312     -0.018699
Au     15.24330     15.75888     14.63391         0.000000     -0.000000      0.000000
