13
# total energy = -25.37057362 eVAu     14.68680     16.09098      9.79061         0.000000     -0.000000     -0.046688
Au     13.63764     14.07035     11.22480         0.013110      0.025077      0.004580
Au     15.73596     18.11164     11.22480        -0.013110     -0.025077      0.004580
Au     16.70746     15.04182     11.22480        -0.025077      0.013110      0.004580
Au     12.66614     17.14017     11.22480         0.025077     -0.013110      0.004580
Au     14.68680     16.09098     12.73155         0.000000     -0.000000     -0.041406
Au     14.68680     16.09098     20.84539         0.000000     -0.000000      0.046688
Au     13.63764     14.07035     19.41120         0.013110      0.025077     -0.004580
Au     16.70746     15.04182     19.41120        -0.025077      0.013110     -0.004580
Au     15.73596     18.11164     19.41120        -0.013110     -0.025077     -0.004580
Au     12.66614     17.14017     19.41120         0.025077     -0.013110     -0.004580
Au     14.68680     16.09098     17.90445         0.000000     -0.000000      0.041406
Au     14.68680     16.09098     15.31800         0.000000     -0.000000      0.000000
