13
# total energy = -25.36546031 eVAu     14.68680     16.09098      9.80896         0.000000     -0.000000     -0.022546
Au     13.63853     14.07190     11.25621        -0.001474     -0.002407     -0.031696
Au     15.73507     18.11009     11.25621         0.001474      0.002407     -0.031696
Au     16.70591     15.04271     11.25621         0.002407     -0.001474     -0.031696
Au     12.66769     17.13928     11.25621        -0.002407      0.001474     -0.031696
Au     14.68680     16.09098     12.74280         0.000000     -0.000000     -0.009517
Au     14.68680     16.09098     20.82704         0.000000      0.000000      0.022546
Au     13.63853     14.07190     19.37979        -0.001474     -0.002407      0.031696
Au     16.70591     15.04271     19.37979         0.002407     -0.001474      0.031696
Au     15.73507     18.11009     19.37979         0.001474      0.002407      0.031696
Au     12.66769     17.13928     19.37979        -0.002407      0.001474      0.031696
Au     14.68680     16.09098     17.89320         0.000000      0.000000      0.009517
Au     14.68680     16.09098     15.31800         0.000000     -0.000000      0.000000
