13
# total energy = -25.36629337 eVAu     14.68680     16.09098      9.80921         0.000000      0.000000     -0.117989
Au     13.63887     14.07258     11.24214        -0.014476     -0.027211     -0.005265
Au     15.73473     18.10941     11.24214         0.014476      0.027211     -0.005265
Au     16.70523     15.04305     11.24214         0.027211     -0.014476     -0.005265
Au     12.66837     17.13894     11.24214        -0.027211      0.014476     -0.005265
Au     14.68680     16.09098     12.73693         0.000000      0.000000      0.028109
Au     14.68680     16.09098     20.82679         0.000000      0.000000      0.117989
Au     13.63887     14.07258     19.39386        -0.014476     -0.027211      0.005265
Au     16.70523     15.04305     19.39386         0.027211     -0.014476      0.005265
Au     15.73473     18.10941     19.39386         0.014476      0.027211      0.005265
Au     12.66837     17.13894     19.39386        -0.027211      0.014476      0.005265
Au     14.68680     16.09098     17.89907         0.000000      0.000000     -0.028109
Au     14.68680     16.09098     15.31800         0.000000      0.000000     -0.000000
