13
# total energy = -29.43587006 eVAu     15.67137     16.45589     13.95416         0.048243      0.134826     -0.035450
Au     13.73983     15.39414     12.29685         0.047763      0.042387      0.028752
Au     17.69023     15.73552     12.14877        -0.000508     -0.001709      0.096250
Au     13.37549     12.92571     13.59384        -0.054171     -0.045051     -0.035012
Au     17.77420     14.16034     14.32375         0.050723     -0.047756     -0.006870
Au     15.83095     13.57562     12.46590         0.050671     -0.001073      0.027641
Au     16.42560     18.18128     16.10784        -0.096301     -0.029983     -0.094709
Au     14.60873     15.96007     16.86139        -0.035347      0.001691      0.057990
Au     17.27782     15.54135     16.60681         0.050710      0.029825      0.040562
Au     12.78914     15.30591     14.90398         0.020983      0.015649      0.051059
Au     18.41304     17.05090     14.51468        -0.093303     -0.030940     -0.097611
Au     13.74769     17.97763     15.30942         0.077771     -0.046330      0.036029
Au     15.27042     13.75562     15.36876        -0.067233     -0.021537     -0.068631
