13
# total energy = -29.81453995 eVAu     15.97561     17.78584     13.39582         0.017617     -0.037263      0.053270
Au     14.37253     15.58678     12.95170         0.029739     -0.075518      0.086043
Au     17.20282     15.53691     12.49923         0.023157     -0.037353     -0.040864
Au     13.22558     13.06889     13.30581         0.015652     -0.003513      0.023754
Au     17.87962     13.76333     14.46285        -0.004511     -0.039750     -0.025449
Au     15.88757     13.07898     12.58320         0.000064      0.061664      0.005100
Au     16.35060     18.38477     16.08396         0.012631      0.000141     -0.027621
Au     14.50694     15.67537     17.16304        -0.036007     -0.043587     -0.007366
Au     17.02118     15.74955     16.13262        -0.005306      0.036345     -0.052227
Au     12.58985     14.97573     15.19653         0.025770      0.060704     -0.045625
Au     18.51573     17.14945     14.36021        -0.013065      0.019391      0.010205
Au     13.91171     17.42201     15.13640        -0.074395      0.035830      0.034953
Au     15.17477     13.84237     15.18478         0.008656      0.022909     -0.014173
