13
# total energy = -25.34451240 eVAu     14.68680     16.09098      9.85931         0.000000      0.000000     -0.218100
Au     13.63095     14.05730     11.24930         0.004435      0.008764      0.043980
Au     15.74265     18.12469     11.24930        -0.004435     -0.008764      0.043980
Au     16.72051     15.03513     11.24930        -0.008764      0.004435      0.043980
Au     12.65309     17.14686     11.24930         0.008764     -0.004435      0.043980
Au     14.68680     16.09098     12.75032         0.000000      0.000000     -0.177189
Au     14.68680     16.09098     20.77669         0.000000      0.000000      0.218100
Au     13.63095     14.05730     19.38670         0.004435      0.008764     -0.043980
Au     16.72051     15.03513     19.38670        -0.008764      0.004435     -0.043980
Au     15.74265     18.12469     19.38670        -0.004435     -0.008764     -0.043980
Au     12.65309     17.14686     19.38670         0.008764     -0.004435     -0.043980
Au     14.68680     16.09098     17.88568         0.000000      0.000000      0.177189
Au     14.68680     16.09098     15.31800         0.000000      0.000000     -0.000000
