13
# total energy = -28.07372648 eVAu     15.83937     14.72160     12.08966         0.022732      0.027503      0.052294
Au     12.46497     16.59462     12.08966        -0.022732     -0.027503      0.052294
Au     15.08868     17.34531     12.08966        -0.027503      0.022732      0.052294
Au     13.21566     13.97091     12.08966         0.027503     -0.022732      0.052294
Au     15.83937     16.59462     17.11531         0.022732     -0.027503     -0.052294
Au     13.21566     17.34531     17.11531         0.027503      0.022732     -0.052294
Au     15.08868     13.97091     17.11531        -0.027503     -0.022732     -0.052294
Au     12.46497     14.72160     17.11531        -0.022732      0.027503     -0.052294
Au     14.15217     15.65811     14.60247         0.000000     -0.000000     -0.000000
Au     12.26770     17.54258     14.60247         0.030615     -0.030615     -0.000000
Au     16.03664     13.77364     14.60247        -0.030615      0.030615     -0.000000
Au     12.26770     13.77364     14.60247         0.030615      0.030615     -0.000000
Au     16.03664     17.54258     14.60247        -0.030615     -0.030615     -0.000000
