13
# total energy = -30.11774927 eVAu     11.94845     16.06322     12.84558         0.000459      0.008315      0.066597
Au     16.49896     17.01570     13.34766        -0.036874      0.063117      0.009227
Au     13.86007     17.63342     14.02676        -0.013189      0.019860     -0.017692
Au     12.35133     13.39148     13.53931         0.010938     -0.023245     -0.053508
Au     17.04718     14.40646     14.12551        -0.023353      0.018102      0.011927
Au     14.55472     15.07587     12.85069         0.025871     -0.058321     -0.045877
Au     15.59526     15.26695     16.33753        -0.004225     -0.018168      0.061150
Au     15.99527     18.71961     15.39601         0.073777      0.031418      0.018536
Au     13.94957     17.39197     16.88521        -0.003840     -0.048285     -0.047882
Au     16.58011     17.52686     17.81467        -0.007830      0.021866     -0.006939
Au     12.91325     15.31724     15.43430         0.024075      0.002900     -0.005648
Au     17.99938     16.48490     15.69512         0.020522      0.006809     -0.022252
Au     14.72195     13.07135     14.78544        -0.066331     -0.024369      0.032360
