13
# total energy = -30.09356782 eVAu     13.01604     14.10836     12.71885        -0.031734     -0.004803     -0.053315
Au     16.60484     16.68616     13.85401        -0.032119      0.013601      0.008357
Au     13.91361     16.80595     13.17654        -0.027995     -0.001665      0.017641
Au     15.29262     12.56648     12.12412         0.060123     -0.065248     -0.012964
Au     17.56788     13.95853     13.26948        -0.029040     -0.017039     -0.027113
Au     15.58681     15.23178     11.76124        -0.025759      0.035828      0.051371
Au     14.97594     13.73465     14.59797         0.000862      0.010720      0.048276
Au     17.24099     17.21625     16.47738         0.030650     -0.009217     -0.016168
Au     14.63894     17.66520     15.70709         0.027612      0.018328      0.004109
Au     17.22461     14.43203     16.02713        -0.042816     -0.011067      0.014059
Au     12.69378     15.37551     15.16889        -0.000337      0.007652     -0.024644
Au     19.09602     15.86845     14.70765         0.014247      0.018495      0.033082
Au     14.82597     15.22953     16.94130         0.056307      0.004416     -0.042693
