13
# total energy = -30.10411314 eVAu     13.04517     14.09555     12.66592        -0.031258     -0.037764      0.023946
Au     16.59269     16.69778     13.86731        -0.065929     -0.030007     -0.031763
Au     13.88226     16.85397     13.22021         0.067992     -0.000540     -0.005929
Au     15.36992     12.52767     12.14832        -0.041220      0.013899     -0.032418
Au     17.54322     13.96537     13.25366         0.061134      0.012252      0.035100
Au     15.51550     15.23171     11.80496         0.007604      0.033179      0.037185
Au     14.95917     13.69429     14.61388        -0.002227      0.035734      0.007340
Au     17.27337     17.19469     16.48232         0.004671      0.018607      0.031587
Au     14.67816     17.73225     15.72340         0.020673      0.031445     -0.027174
Au     17.21880     14.41453     16.02011        -0.068882     -0.043318     -0.001216
Au     12.68353     15.34106     15.12702         0.004974     -0.058115      0.050189
Au     19.08585     15.85442     14.70260         0.043170      0.018787     -0.005488
Au     14.83040     15.27560     16.90196        -0.000702      0.005843     -0.081360
