13
# total energy = -30.37787211 eVAu     13.05749     15.59116     12.17715        -0.005195     -0.011844     -0.005996
Au     15.61900     16.79094     12.97855        -0.011167     -0.002413     -0.002262
Au     11.52859     15.14709     14.39039         0.003323      0.004479      0.002537
Au     14.35654     14.16611     14.11163         0.000928      0.020352     -0.002827
Au     17.08539     14.46215     13.52012         0.002489     -0.006854     -0.009187
Au     15.43874     14.56571     11.33430         0.003832      0.005111      0.003128
Au     16.05071     14.83595     16.15080         0.004124      0.005815      0.003704
Au     15.97188     17.66834     15.51119         0.006777     -0.012805      0.012616
Au     14.80198     16.71262     17.92551         0.003692      0.000869      0.005901
Au     17.52073     16.70640     17.67364        -0.000727      0.004257     -0.002832
Au     18.37153     16.18246     15.13245         0.003812      0.001318      0.006686
Au     13.46752     17.11116     14.65896        -0.000379     -0.003509     -0.012361
Au     13.23130     15.03770     16.53253        -0.011508     -0.004776      0.000894
