13
# total energy = -29.86189999 eVAu     15.98748     17.74345     13.46147        -0.002949     -0.073974      0.012012
Au     14.42505     15.54329     13.04253        -0.007857      0.042450     -0.046299
Au     17.24836     15.53525     12.48179        -0.060405      0.100480      0.074590
Au     13.22876     13.02762     13.35346        -0.009979     -0.020489      0.043365
Au     17.88729     13.72803     14.41943         0.071685     -0.018213      0.019124
Au     15.87615     13.11331     12.58523         0.004702     -0.083203      0.000322
Au     16.33461     18.43941     16.08097        -0.017196     -0.000448      0.010660
Au     14.48906     15.61519     17.12541         0.071393     -0.025140     -0.099922
Au     16.97545     15.78150     16.02078        -0.055647      0.011924     -0.019350
Au     12.57283     15.05264     15.11868        -0.029512      0.038317     -0.008406
Au     18.55864     17.17263     14.34550         0.019237      0.000655      0.001895
Au     13.85003     17.50725     15.19216         0.040217      0.002716      0.028195
Au     15.18081     13.76043     15.22879        -0.023690      0.024926     -0.016185
