13
# total energy = -27.53114690 eVAu     15.79190     14.78709     11.89991         0.484500     -0.388115      0.453788
Au     12.51244     16.52913     11.89991        -0.484500      0.388115      0.453788
Au     15.02319     17.29784     11.89991         0.388115      0.484500      0.453788
Au     13.28115     14.01838     11.89991        -0.388115     -0.484500      0.453788
Au     15.79190     16.52913     17.30506         0.484500      0.388115     -0.453788
Au     13.28115     17.29784     17.30506        -0.388115      0.484500     -0.453788
Au     15.02319     14.01838     17.30506         0.388115     -0.484500     -0.453788
Au     12.51244     14.78709     17.30506        -0.484500     -0.388115     -0.453788
Au     14.15217     15.65811     14.60247         0.000000     -0.000000     -0.000000
Au     12.30809     17.50219     14.60247         0.072698     -0.072698     -0.000000
Au     15.99625     13.81403     14.60247        -0.072698      0.072698     -0.000000
Au     12.30809     13.81403     14.60247         0.072698      0.072698     -0.000000
Au     15.99625     17.50219     14.60247        -0.072698     -0.072698     -0.000000
