13
# total energy = -29.30042728 eVAu     14.74836     17.25245     11.73031        -0.029738      0.123005      0.100829
Au     15.64159     19.61870     13.31155         0.215547     -0.006657     -0.113082
Au     17.13028     17.26803     13.21187        -0.236954     -0.438035     -0.084625
Au     13.51885     18.02061     14.10915         0.155527      0.248534     -0.436394
Au     13.13850     15.51027     12.93048         0.043270     -0.081416      0.105235
Au     15.95812     14.67880     13.29728        -0.024772      0.188055     -0.142419
Au     15.46696     16.11606     15.46363         0.328895     -0.377138      0.111158
Au     17.06349     18.87410     15.44242        -0.088011      0.159423      0.062123
Au     14.53705     18.25143     16.66665         0.143042      0.405549      0.438379
Au     17.40296     17.46343     17.63157        -0.204422     -0.068768     -0.152782
Au     12.77360     16.19500     15.85976        -0.220596     -0.542227      0.128977
Au     13.70864     13.67594     14.79062         0.037710      0.177480     -0.056394
Au     18.19108     15.97252     15.34368        -0.119498      0.212195      0.038996
