13
# total energy = -29.69969937 eVAu     14.33406     18.29477     14.64014        -0.395513      0.703302      0.000679
Au     18.07351     15.28634     14.61409        -0.879964     -1.711363      0.162070
Au     13.44776     13.70680     14.63524         0.665535     -1.036325     -0.093833
Au     14.41563     11.09925     14.39073         0.108003      1.018913      0.108979
Au     11.64009     18.79962     14.39253         0.612547     -0.436637      0.095817
Au     19.55301     17.28259     14.40693         1.349003      1.012352     -0.152260
Au     16.15254     13.22296     14.62768         0.395513     -0.703302     -0.000679
Au     12.41306     16.23139     14.65373         0.879964      1.711363     -0.162070
Au     17.03881     17.81093     14.63258        -0.665535      1.036325      0.093833
Au     16.07097     20.41848     14.87709        -0.108003     -1.018913     -0.108979
Au     18.84651     12.71811     14.87529        -0.612547      0.436637     -0.095817
Au     10.93359     14.23514     14.86089        -1.349003     -1.012352      0.152260
Au     15.24330     15.75888     14.63391        -0.000000      0.000000      0.000000
