13
# total energy = -29.92584219 eVAu     14.57700     16.70296     12.98880        -0.002019     -0.011516      0.009190
Au     11.73415     16.56626     12.79015        -0.008551      0.015567      0.009629
Au     13.23820     14.91643     11.20914         0.017032     -0.010239     -0.011449
Au     11.02003     13.80191     12.63229         0.002305      0.016341     -0.013344
Au     17.18220     15.95564     13.88306         0.009683     -0.010259     -0.015264
Au     13.56245     13.11583     13.38069         0.026447     -0.008421      0.007972
Au     15.77041     14.35515     12.14040         0.013698     -0.023468     -0.013947
Au     15.67660     17.60580     15.46332        -0.018151      0.012403      0.006859
Au     14.25827     15.36308     16.47639        -0.027799      0.001248      0.001445
Au     16.98856     15.37351     16.67707         0.006994      0.017155     -0.010117
Au     12.94931     17.44685     15.10020        -0.014209      0.015317      0.022475
Au     12.04486     14.78004     14.97542         0.005961      0.005846      0.024649
Au     15.77615     13.69960     14.88209        -0.011391     -0.019973     -0.018099
