13
# total energy = -25.36476113 eVAu     14.68680     16.09098      9.80891         0.000000     -0.000000     -0.002433
Au     13.63845     14.07174     11.25937         0.001737      0.003435     -0.037359
Au     15.73515     18.11025     11.25937        -0.001737     -0.003435     -0.037359
Au     16.70607     15.04263     11.25937        -0.003435      0.001737     -0.037359
Au     12.66753     17.13936     11.25937         0.003435     -0.001737     -0.037359
Au     14.68680     16.09098     12.74412         0.000000     -0.000000     -0.019451
Au     14.68680     16.09098     20.82709         0.000000      0.000000      0.002433
Au     13.63845     14.07174     19.37663         0.001737      0.003435      0.037359
Au     16.70607     15.04263     19.37663        -0.003435      0.001737      0.037359
Au     15.73515     18.11025     19.37663        -0.001737     -0.003435      0.037359
Au     12.66753     17.13936     19.37663         0.003435     -0.001737      0.037359
Au     14.68680     16.09098     17.89188         0.000000      0.000000      0.019451
Au     14.68680     16.09098     15.31800         0.000000     -0.000000     -0.000000
