13
# total energy = -29.41711791 eVAu     15.66631     16.42461     13.96976         0.045996      0.153371     -0.047941
Au     13.72975     15.39998     12.28030         0.070058     -0.000651      0.086695
Au     17.67443     15.73895     12.14139         0.021227      0.023214      0.104848
Au     13.37419     12.93148     13.58808         0.036527      0.025508      0.028003
Au     17.78253     14.17092     14.31824         0.086586     -0.075832     -0.031379
Au     15.83417     13.58248     12.46921        -0.015373      0.005730      0.025933
Au     16.43037     18.17797     16.11549        -0.126353     -0.033007     -0.105212
Au     14.61023     15.97464     16.86166        -0.071974      0.014085      0.089456
Au     17.26667     15.53029     16.60061         0.117538      0.073623      0.095219
Au     12.79564     15.31076     14.90459         0.026286     -0.016685     -0.005755
Au     18.41723     17.04793     14.52272        -0.101881     -0.046420     -0.123214
Au     13.74391     17.97439     15.29225         0.100911     -0.023674      0.045685
Au     15.28908     13.75559     15.39184        -0.189548     -0.099262     -0.162338
