13
# total energy = -29.89398564 eVAu     11.96184     16.03302     12.91277        -0.036264     -0.000819     -0.006576
Au     16.53933     17.02317     13.31312        -0.157970     -0.021677      0.049657
Au     13.87814     17.59625     14.09621         0.078479      0.006478     -0.062355
Au     12.45483     13.34615     13.51490        -0.146426      0.031470      0.018991
Au     17.12354     14.34770     14.08708        -0.147656      0.136174      0.093890
Au     14.58763     15.03783     12.90200         0.112227      0.035603      0.026383
Au     15.51884     15.61166     15.91791        -0.151576     -0.388799      0.103783
Au     16.07547     18.65217     15.45750        -0.044491     -0.009673     -0.003459
Au     13.82877     17.52531     16.92558         0.005383     -0.271592     -0.104282
Au     16.50213     17.25801     17.85601         0.097978      0.297497      0.024500
Au     12.75025     15.31760     15.51787         0.149374      0.174466     -0.058260
Au     18.08834     16.52422     15.64486         0.098849     -0.064557     -0.006524
Au     14.70640     13.09194     14.93800         0.142094      0.075429     -0.075748
