13
# total energy = -29.76300808 eVAu     15.94871     17.71853     13.41084         0.005552      0.070938     -0.047742
Au     14.33626     15.58841     12.88914        -0.025256      0.010550     -0.013172
Au     17.21722     15.51163     12.47932         0.084924     -0.045931      0.053563
Au     13.25992     13.08377     13.33993        -0.110950     -0.074352     -0.089263
Au     17.89242     13.73013     14.46528        -0.122579      0.150022     -0.014380
Au     15.90980     13.05813     12.54719         0.002153      0.068503      0.053350
Au     16.37654     18.35664     16.05872        -0.058758      0.022664      0.051537
Au     14.47801     15.67320     17.20063         0.094718      0.023338     -0.181383
Au     17.07865     15.72882     16.22432        -0.096647     -0.040700     -0.092344
Au     12.55585     14.97804     15.22624         0.075273      0.037077     -0.027168
Au     18.47630     17.15954     14.37755         0.049856     -0.046673     -0.033827
Au     13.88941     17.41400     15.15000         0.007375     -0.004653      0.101869
Au     15.19542     14.01914     15.08700         0.094339     -0.170783      0.238960
