13
# total energy = -29.97815764 eVAu     11.95271     16.02712     12.91647        -0.043746      0.099851     -0.113590
Au     16.49653     17.04618     13.32792         0.011593     -0.105265     -0.017577
Au     13.88947     17.62390     14.05173         0.002265     -0.022494     -0.045440
Au     12.43240     13.37104     13.53782        -0.162993     -0.042798      0.026180
Au     17.09269     14.39745     14.13102         0.156084     -0.085415     -0.184026
Au     14.58962     15.01928     12.88675         0.035890      0.157330     -0.023179
Au     15.53066     15.49835     16.00973        -0.011281      0.028808      0.407304
Au     16.06792     18.65700     15.45314        -0.058080     -0.013955      0.098556
Au     13.82684     17.41182     16.89825         0.206230      0.159585      0.153341
Au     16.53982     17.36610     17.84821        -0.040379      0.100256     -0.198377
Au     12.75988     15.38105     15.48689        -0.019515     -0.231702     -0.137147
Au     18.11234     16.48551     15.65015        -0.120050      0.040724      0.053565
Au     14.72465     13.08023     14.88573         0.043981     -0.084924     -0.019610
