13
# total energy = -28.07038438 eVAu     14.23742     15.48299     11.81686         0.013223      0.010803      0.007719
Au     11.97497     16.14549     13.54611         0.005600     -0.012173     -0.018275
Au     15.89362     13.57479     13.29590        -0.036282      0.006221      0.001226
Au     14.20609     18.00162     13.20188        -0.024499      0.032371      0.009811
Au     13.03094     13.45203     13.66503        -0.000147     -0.021653      0.018898
Au     16.71603     16.35399     13.06373         0.006009     -0.016463      0.006741
Au     17.03272     15.09105     15.63273        -0.005600      0.012173      0.018275
Au     13.11404     17.66184     15.88288         0.036282     -0.006221     -0.001226
Au     14.77018     15.75364     17.36207        -0.013223     -0.010803     -0.007719
Au     14.50386     15.61830     14.58942         0.000000     -0.000000      0.000000
Au     14.80163     13.23498     15.97699         0.024499     -0.032371     -0.009811
Au     15.97687     17.78454     15.51381         0.000147      0.021653     -0.018898
Au     12.29166     14.88258     16.11508        -0.006009      0.016463     -0.006741
