13
# total energy = -29.86947996 eVAu     12.90231     14.06454     12.68946         0.269091      0.075926      0.139621
Au     16.62779     16.83653     13.71139        -0.135427     -0.216897      0.047791
Au     13.82989     16.74811     13.05052         0.074395     -0.020212      0.103850
Au     15.32172     12.57039     12.30948        -0.061973      0.011079     -0.012747
Au     17.67303     14.02226     13.23672        -0.298581      0.000263      0.110902
Au     15.56345     15.17199     11.72581         0.127287      0.143391      0.093147
Au     15.03439     14.25105     14.50762        -0.079925     -0.314936     -0.256207
Au     17.17395     17.01496     16.48056         0.018003      0.313033      0.067447
Au     14.61727     17.46257     15.63739        -0.035345      0.155039     -0.105351
Au     17.29786     14.22829     16.11227         0.112085     -0.154864     -0.196832
Au     12.63231     15.46665     15.19231         0.080390     -0.057279     -0.011144
Au     19.02195     15.86521     14.79545         0.220563      0.051608     -0.134756
Au     14.98212     15.17633     17.08268        -0.290563      0.013848      0.154278
