13
# total energy = -25.29545745 eVAu     14.68680     16.09098      9.91314         0.000000     -0.000000     -0.487577
Au     13.62110     14.03830     11.23814        -0.004804     -0.009077      0.098216
Au     15.75250     18.14369     11.23814         0.004804      0.009077      0.098216
Au     16.73951     15.02528     11.23814         0.009077     -0.004804      0.098216
Au     12.63409     17.15671     11.23814        -0.009077      0.004804      0.098216
Au     14.68680     16.09098     12.73548         0.000000     -0.000000      0.004553
Au     14.68680     16.09098     20.72286         0.000000     -0.000000      0.487577
Au     13.62110     14.03830     19.39786        -0.004804     -0.009077     -0.098216
Au     16.73951     15.02528     19.39786         0.009077     -0.004804     -0.098216
Au     15.75250     18.14369     19.39786         0.004804      0.009077     -0.098216
Au     12.63409     17.15671     19.39786        -0.009077      0.004804     -0.098216
Au     14.68680     16.09098     17.90052         0.000000     -0.000000     -0.004553
Au     14.68680     16.09098     15.31800         0.000000     -0.000000     -0.000000
