13
# total energy = -28.60731638 eVAu     14.44407     15.76193     11.83824         0.070298      0.230212     -0.110886
Au     12.06388     15.94428     13.24350         0.170362     -0.039389      0.093938
Au     15.52701     13.50878     13.17540         0.145690      0.000031     -0.254985
Au     13.78686     18.40664     13.36533         0.044901     -0.548769      0.097380
Au     12.91705     13.14135     14.07329         0.039834      0.404622      0.408125
Au     16.86164     16.08114     13.20239         0.059342     -0.009111      0.175696
Au     16.94381     15.29226     15.93534        -0.170362      0.039389     -0.093938
Au     13.48065     17.72785     16.00338        -0.145690     -0.000031      0.254985
Au     14.56353     15.47470     17.34069        -0.070298     -0.230212      0.110886
Au     14.50386     15.61830     14.58942         0.000000     -0.000000     -0.000000
Au     15.22086     12.82996     15.81354        -0.044901      0.548769     -0.097380
Au     16.09076     18.09522     15.10555        -0.039834     -0.404622     -0.408125
Au     12.14605     15.15543     15.97642        -0.059342      0.009111     -0.175696
