13
# total energy = -29.90199666 eVAu     14.52955     16.52741     13.12705         0.004813      0.044400     -0.035636
Au     11.68615     16.55839     12.83120         0.025349      0.010313      0.018748
Au     13.24170     14.85435     11.20068         0.006770      0.009558      0.003573
Au     11.03035     13.83206     12.60809         0.028065      0.012477      0.011144
Au     17.21068     15.90152     13.89138        -0.015633     -0.007137     -0.017029
Au     13.59786     13.12855     13.36338        -0.109210      0.073665     -0.038593
Au     15.83289     14.38601     12.03293        -0.092206     -0.049863      0.177990
Au     15.65493     17.60313     15.52252         0.002433      0.009361     -0.009958
Au     14.23703     15.39382     16.46133         0.106191      0.006869     -0.039783
Au     16.99589     15.40361     16.65240        -0.018574     -0.001805     -0.021665
Au     12.93027     17.57351     15.08503         0.015598     -0.212933      0.013924
Au     12.05379     14.81778     14.98138         0.002075     -0.011810     -0.121628
Au     15.77709     13.70292     14.84166         0.044328      0.116904      0.058913
