13
# total energy = -30.06626862 eVAu     12.96597     14.08640     12.73319        -0.037635      0.065378     -0.016995
Au     16.59689     16.69235     13.85470         0.108481      0.033698      0.071331
Au     13.90553     16.75344     13.13249        -0.085431      0.048485      0.072920
Au     15.24989     12.58317     12.09758         0.058517     -0.058292      0.007422
Au     17.56662     13.94253     13.28546         0.079185      0.008811      0.017065
Au     15.64798     15.23720     11.76964        -0.073266     -0.036238     -0.124576
Au     14.95841     13.79843     14.55773         0.102245     -0.030776      0.125390
Au     17.25284     17.25118     16.45780        -0.064681     -0.076177     -0.010438
Au     14.62717     17.60930     15.68805         0.040885      0.054099      0.044077
Au     17.24081     14.40933     16.02245        -0.064923      0.058804     -0.001672
Au     12.70138     15.41989     15.20846        -0.031559     -0.028114     -0.115719
Au     19.10791     15.90217     14.76443        -0.076315     -0.055244     -0.067297
Au     14.85665     15.19348     16.95968         0.044495      0.015564     -0.001509
