13
# total energy = -28.13548742 eVAu     14.14713     16.13841     12.25107        -0.037384      0.005247     -0.050108
Au     16.47745     17.87702     12.51592         0.013764      0.045079     -0.047922
Au     18.54093     16.40420     13.96238         0.069987      0.010437     -0.012537
Au     14.77114     13.59317     13.53573        -0.023993     -0.059387     -0.022877
Au     16.83465     15.01881     12.04283         0.024074     -0.023756     -0.059358
Au     15.84066     15.98724     14.44647         0.000000      0.000000     -0.000000
Au     16.91018     18.38131     15.35721         0.023993      0.059387      0.022877
Au     14.84667     16.95564     16.85011        -0.024074      0.023756      0.059358
Au     17.53419     15.83604     16.64190         0.037384     -0.005247      0.050108
Au     13.14039     15.57025     14.93059        -0.069987     -0.010437      0.012537
Au     14.19332     18.21794     14.30134        -0.037011      0.050075     -0.005236
Au     15.20387     14.09746     16.37705        -0.013764     -0.045079      0.047922
Au     17.48797     13.75651     14.59163         0.037011     -0.050075      0.005236
