13
# total energy = -29.25742777 eVAu     15.64216     16.25519     14.05973         0.045363      0.230561     -0.107229
Au     13.72073     15.45891     12.22758        -0.009347     -0.114443      0.069456
Au     17.55382     15.81610     12.10232         0.162634     -0.127797      0.117656
Au     13.38919     12.98779     13.56697         0.021454      0.000432      0.026761
Au     17.90286     14.15411     14.31462        -0.124580      0.085530     -0.066292
Au     15.85853     13.66442     12.53146        -0.091365     -0.127959     -0.088026
Au     16.37986     18.12419     16.08362         0.050492      0.065792      0.063499
Au     14.59553     16.03503     16.96571        -0.002552      0.016221     -0.164319
Au     17.25359     15.48173     16.61859         0.024836      0.077724     -0.023810
Au     12.89325     15.35056     14.90843        -0.143100     -0.098609     -0.047182
Au     18.36097     16.99750     14.49509         0.088163      0.044126      0.034372
Au     13.75920     17.97424     15.14460         0.018828     -0.045551      0.232130
Au     15.30482     13.72022     15.43744        -0.040825     -0.006028     -0.047016
