13
# total energy = -30.12972066 eVAu     11.95252     16.05858     12.87540        -0.018237      0.034353      0.026687
Au     16.47387     17.03960     13.35138        -0.015634     -0.018087      0.002794
Au     13.84962     17.65203     14.01596         0.061330      0.018302      0.051462
Au     12.34225     13.39512     13.50167         0.004622     -0.047225     -0.069636
Au     17.00395     14.41522     14.14230        -0.055462      0.047229     -0.006336
Au     14.56996     15.06516     12.80850        -0.015268     -0.036858      0.042996
Au     15.61792     15.20986     16.42263         0.027549     -0.020305     -0.004628
Au     16.02167     18.76129     15.39287        -0.020852     -0.009851     -0.019772
Au     13.98256     17.37511     16.84614         0.003485      0.035675     -0.011418
Au     16.57436     17.55896     17.81489         0.028215     -0.025564     -0.019387
Au     12.96953     15.28612     15.42994        -0.021759     -0.002854     -0.074610
Au     17.98050     16.49300     15.69085        -0.040136     -0.008411      0.012553
Au     14.67680     13.05499     14.79128         0.062148      0.033598      0.069296
