13
# total energy = -30.37803859 eVAu     13.05591     15.58792     12.17554        -0.004959     -0.012268     -0.005970
Au     15.61668     16.79151     12.97740        -0.004224     -0.002188     -0.005168
Au     11.52781     15.14799     14.39101         0.002932      0.004717     -0.001108
Au     14.35722     14.16971     14.11201         0.004605      0.015382      0.001109
Au     17.08635     14.46372     13.51900        -0.002993     -0.008858     -0.007864
Au     15.44000     14.56644     11.33346         0.000780      0.005764      0.002961
Au     16.05176     14.83558     16.15258         0.003594      0.002698      0.000936
Au     15.97158     17.66374     15.51217         0.006960     -0.004277      0.008934
Au     14.80174     16.71070     17.92668         0.014478      0.003570      0.010667
Au     17.52255     16.70868     17.67575        -0.008998     -0.000506     -0.013986
Au     18.37249     16.18057     15.13284         0.003909      0.005189      0.018559
Au     13.46709     17.11158     14.65613        -0.005558     -0.001593     -0.007081
Au     13.23019     15.03964     16.53267        -0.010525     -0.007629     -0.001989
