13
# total energy = -29.68241753 eVAu     14.38139     15.98135     13.55716         0.075688      0.273669     -0.214223
Au     11.79357     16.68895     12.83130        -0.360788      0.143539     -0.086476
Au     13.36955     14.96187     11.17780        -0.102860     -0.139869     -0.357381
Au     11.11158     14.02095     12.48841        -0.145114     -0.145178      0.014915
Au     17.15472     15.95890     13.74403         0.394573     -0.008820     -0.018678
Au     13.58716     13.14555     13.33984        -0.231933     -0.263233     -0.057134
Au     15.86228     14.18204     12.07224         0.162550      0.050708     -0.258307
Au     15.57867     17.68605     15.39749         0.138307      0.272778      0.250426
Au     14.25652     15.41439     16.45251         0.143368     -0.068935      0.319633
Au     17.01198     15.57487     16.48888         0.083091     -0.084567      0.166632
Au     12.82719     17.50811     15.25697        -0.067389      0.300917     -0.019244
Au     12.04777     14.83265     14.95502        -0.302265     -0.186576      0.015822
Au     15.79583     13.72738     14.83735         0.212771     -0.144434      0.244014
