13
# total energy = -26.44395521 eVAu     13.72938     18.01710     14.61579        -0.005740      0.507603     -0.072205
Au     17.92083     15.91793     14.62003         1.025278      0.288005     -0.143103
Au     14.03688     13.31564     14.61715        -0.201988     -0.211179     -0.064370
Au     13.93969     10.75194     14.21907         0.139077      0.299896      0.081238
Au     11.55880     19.39696     14.22332         0.222709     -0.297705      0.085736
Au     20.26399     17.15091     14.21012        -0.773806     -0.255755      0.157450
Au     16.75722     13.50063     14.65203         0.005740     -0.507603      0.072205
Au     12.56574     15.59980     14.64779        -1.025278     -0.288005      0.143103
Au     16.44969     18.20209     14.65067         0.201988      0.211179      0.064370
Au     16.54691     20.76579     15.04875        -0.139077     -0.299896     -0.081238
Au     18.92780     12.12077     15.04450        -0.222709      0.297705     -0.085736
Au     10.22261     14.36682     15.05770         0.773806      0.255755     -0.157450
Au     15.24330     15.75888     14.63391         0.000000      0.000000      0.000000
