13
# total energy = -28.82137712 eVAu     14.46786     15.84004     11.81483         0.165127      0.054717     -0.095300
Au     12.11162     15.91986     13.24177        -0.057997     -0.028447     -0.099078
Au     15.54984     13.48517     13.10838        -0.136609      0.202280     -0.132366
Au     13.76108     18.32102     13.40259         0.014801     -0.286721     -0.021094
Au     12.90274     13.20206     14.20028         0.200531      0.039848     -0.058248
Au     16.87640     16.05825     13.26536         0.326552     -0.176017     -0.386445
Au     16.89607     15.31668     15.93707         0.057997      0.028447      0.099078
Au     13.45782     17.75146     16.07040         0.136609     -0.202280      0.132366
Au     14.53974     15.39659     17.36410        -0.165127     -0.054717      0.095300
Au     14.50386     15.61830     14.58942         0.000000      0.000000      0.000000
Au     15.24664     12.91558     15.77628        -0.014801      0.286721      0.021094
Au     16.10507     18.03451     14.97856        -0.200531     -0.039848      0.058248
Au     12.13129     15.17832     15.91345        -0.326552      0.176017      0.386445
