13
# total energy = -29.48902098 eVAu     15.68753     16.64596     13.83961         0.096435      0.142832      0.022902
Au     13.80651     15.40369     12.37263        -0.052124     -0.060704     -0.022997
Au     17.73515     15.68343     12.18736        -0.051758     -0.077462      0.090733
Au     13.30941     12.88557     13.54007         0.084878      0.157309     -0.007409
Au     17.76021     14.10408     14.38245         0.081855      0.017358     -0.093554
Au     15.85384     13.52864     12.48273        -0.024610     -0.066862      0.046295
Au     16.40966     18.20436     16.05779        -0.029652     -0.015700      0.023231
Au     14.62404     15.88758     16.89628        -0.068674      0.100705      0.021311
Au     17.29770     15.57358     16.60862         0.003421      0.054435     -0.033232
Au     12.77496     15.27964     14.94913         0.004141     -0.076371      0.030706
Au     18.38668     17.08005     14.47367         0.009557     -0.039075     -0.008890
Au     13.74763     17.95130     15.38424         0.032235     -0.125612      0.023881
Au     15.22120     13.79212     15.28160        -0.085705     -0.010854     -0.092980
