13
# total energy = -30.14408364 eVAu     11.94057     16.07417     12.91593        -0.033756     -0.001580     -0.000498
Au     16.44989     17.04492     13.33445        -0.028719     -0.036526     -0.054314
Au     13.85087     17.68650     14.02351        -0.009292     -0.011212      0.044868
Au     12.40804     13.36849     13.41651        -0.008077      0.003090     -0.004605
Au     16.95995     14.43633     14.12941        -0.061364     -0.022102     -0.006365
Au     14.55491     15.05161     12.80033         0.102928      0.007899      0.010195
Au     15.62411     15.17618     16.47973         0.010474     -0.058573     -0.021065
Au     16.03985     18.77372     15.37615        -0.014753      0.010649      0.020070
Au     14.01535     17.37229     16.83734        -0.074519      0.043942     -0.026208
Au     16.57763     17.54706     17.81181         0.034702      0.020191      0.057349
Au     12.99052     15.28949     15.39189         0.009556      0.002126     -0.017527
Au     17.94514     16.49150     15.68633         0.051489     -0.006266     -0.012987
Au     14.65868     13.05277     14.88040         0.021331      0.048362      0.011087
