13
# total energy = -28.07775705 eVAu     15.84144     14.72753     12.09674         0.041508      0.025956      0.033330
Au     12.46290     16.58869     12.09674        -0.041508     -0.025956      0.033330
Au     15.08275     17.34738     12.09674        -0.025956      0.041508      0.033330
Au     13.22159     13.96884     12.09674         0.025956     -0.041508      0.033330
Au     15.84144     16.58869     17.10823         0.041508     -0.025956     -0.033330
Au     13.22159     17.34738     17.10823         0.025956      0.041508     -0.033330
Au     15.08275     13.96884     17.10823        -0.025956     -0.041508     -0.033330
Au     12.46290     14.72753     17.10823        -0.041508      0.025956     -0.033330
Au     14.15217     15.65811     14.60247         0.000000      0.000000      0.000000
Au     12.26645     17.54383     14.60247         0.024564     -0.024564      0.000000
Au     16.03789     13.77239     14.60247        -0.024564      0.024564      0.000000
Au     12.26645     13.77239     14.60247         0.024564      0.024564     -0.000000
Au     16.03789     17.54383     14.60247        -0.024564     -0.024564     -0.000000
