13
# total energy = -29.83194239 eVAu     11.95934     16.03937     12.90660         0.066919     -0.095045      0.092916
Au     16.53760     16.99847     13.31099         0.010774      0.196452      0.065124
Au     13.88738     17.57482     14.11898        -0.071531      0.156394     -0.184751
Au     12.43701     13.33010     13.49888         0.191860      0.204253      0.164181
Au     17.11482     14.33682     14.07169         0.045080      0.134959      0.147502
Au     14.61458     15.06309     12.92045        -0.263249     -0.230283     -0.121503
Au     15.47031     15.61314     15.86398         0.448483      0.014095      0.465848
Au     16.07115     18.64755     15.45953         0.033866     -0.016379      0.005536
Au     13.83027     17.55738     16.92444         0.032992     -0.297593     -0.016738
Au     16.49423     17.23727     17.87119         0.049634      0.188529     -0.202087
Au     12.77852     15.30566     15.53242        -0.237953      0.101763     -0.185938
Au     18.09397     16.54176     15.63889        -0.112011     -0.150178      0.045653
Au     14.72633     13.11962     14.96578        -0.194863     -0.206967     -0.275742
