13
# total energy = -29.96458787 eVAu     11.17626     16.82871     12.05512        -0.001585     -0.029443      0.018997
Au     14.00691     16.45796     12.15106         0.003598      0.021510      0.007148
Au     16.78566     15.81105     12.29042        -0.011404     -0.028056      0.017695
Au     12.23735     14.30405     12.41035        -0.004082      0.000703     -0.014252
Au     14.88104     13.82433     12.52107         0.005364     -0.000823     -0.014211
Au     15.48445     17.33686     14.32409        -0.012013      0.012016     -0.014927
Au     14.21849     18.63771     16.52939        -0.005171     -0.033044      0.011552
Au     12.35405     16.60726     16.69552        -0.006735      0.011877      0.005789
Au     15.23237     16.08474     16.81586         0.010710      0.010491      0.007367
Au     10.92008     15.75473     14.58650        -0.011937      0.008585     -0.002162
Au     12.75987     17.83062     14.21021         0.016581      0.007591     -0.013639
Au     13.58667     14.77454     14.88395         0.002298      0.013641     -0.008069
Au     16.44211     14.75253     14.81779         0.014376      0.004951     -0.001287
