13
# total energy = -29.92653757 eVAu     14.57460     16.69292     12.99652        -0.001966     -0.011652      0.008208
Au     11.73904     16.57498     12.79487        -0.002541     -0.004604      0.006789
Au     13.24982     14.91735     11.20712         0.001652     -0.007577      0.002867
Au     11.02877     13.82308     12.61933        -0.011300     -0.003024     -0.006667
Au     17.18057     15.95364     13.87298        -0.003364     -0.010069     -0.001945
Au     13.56057     13.11099     13.38490         0.018572      0.003876     -0.004875
Au     15.77361     14.33759     12.14247         0.006607      0.001765     -0.003813
Au     15.66658     17.61058     15.45922        -0.005133     -0.005882      0.005041
Au     14.25664     15.35791     16.48099        -0.010411      0.011556     -0.004349
Au     16.99050     15.39273     16.65916         0.008697      0.002284      0.010289
Au     12.94011     17.44261     15.11493        -0.003156      0.008169      0.001329
Au     12.04269     14.77416     14.97999         0.003401      0.015792      0.005552
Au     15.77470     13.69451     14.88654        -0.001059     -0.000634     -0.018426
