13
# total energy = -28.80338491 eVAu     15.03940     16.00885     14.70467        -0.138473      0.298322     -0.210333
Au     12.69722     16.94436     13.24272        -0.905099      0.400968     -0.611831
Au     14.25099     15.26903     12.01525         0.328389     -0.365849     -0.919462
Au     14.22936     13.43740     13.96034        -0.278129     -0.379198      0.164247
Au     16.70827     14.60440     13.06958         0.250763      0.248178     -2.704373
Au     15.99960     17.88525     16.47788         0.368589      0.731401     -0.074850
Au     14.01965     16.38686     17.60540        -0.873606      0.510105      0.617495
Au     16.47830     15.41453     17.47782         0.915060     -0.809697      0.311899
Au     12.42979     15.32823     15.39698        -0.399451     -0.095954     -0.034725
Au     17.76628     16.05447     15.07749         0.663428      0.606402      0.513029
Au     13.36023     18.02602     15.53313        -0.208667      0.809196      0.690508
Au     14.26301     13.85540     16.73896         0.243744     -0.820124      0.072077
Au     16.72064     13.53612     15.32085         0.033451     -1.133750      2.186320
