13
# total energy = -25.37970080 eVAu     14.68680     16.09098      9.74324        -0.000000      0.000000      0.003778
Au     13.64323     14.08134     11.20120         0.010395      0.020164     -0.006913
Au     15.73037     18.10065     11.20120        -0.010395     -0.020164     -0.006913
Au     16.69647     15.04741     11.20120        -0.020164      0.010395     -0.006913
Au     12.67713     17.13458     11.20120         0.020164     -0.010395     -0.006913
Au     14.68680     16.09098     12.72037        -0.000000      0.000000      0.029039
Au     14.68680     16.09098     20.89276        -0.000000      0.000000     -0.003778
Au     13.64323     14.08134     19.43480         0.010395      0.020164      0.006913
Au     16.69647     15.04741     19.43480        -0.020164      0.010395      0.006913
Au     15.73037     18.10065     19.43480        -0.010395     -0.020164      0.006913
Au     12.67713     17.13458     19.43480         0.020164     -0.010395      0.006913
Au     14.68680     16.09098     17.91563         0.000000      0.000000     -0.029039
Au     14.68680     16.09098     15.31800        -0.000000      0.000000      0.000000
