13
# total energy = -29.92271973 eVAu     11.23067     16.84345     12.07817        -0.139814     -0.008049     -0.079074
Au     14.00529     16.44749     12.13599         0.013896      0.089933      0.093358
Au     16.73786     15.84472     12.30941         0.133039     -0.058946     -0.067742
Au     12.23954     14.28828     12.40160        -0.070285      0.010401      0.035943
Au     14.87457     13.81072     12.51205         0.064786     -0.015316      0.042382
Au     15.50009     17.33599     14.33402        -0.103759      0.020486     -0.076689
Au     14.21744     18.61986     16.47107         0.008846      0.077935      0.138621
Au     12.33776     16.60390     16.70222         0.060622     -0.008222      0.049625
Au     15.24593     16.07680     16.82379        -0.063858      0.011538      0.044137
Au     10.90881     15.75426     14.59970        -0.013553     -0.051835     -0.055727
Au     12.74526     17.83561     14.21859         0.109056     -0.017480     -0.067957
Au     13.59051     14.79584     14.87224         0.004030      0.002960     -0.000415
Au     16.45158     14.74816     14.83250        -0.003007     -0.053403     -0.056462
