13
# total energy = -28.27636380 eVAu     16.03732     14.95703     12.25762        -0.283430      0.260905     -0.017746
Au     12.26702     16.35919     12.25762         0.283430     -0.260905     -0.017746
Au     14.85325     17.54326     12.25762        -0.260905     -0.283430     -0.017746
Au     13.45109     13.77296     12.25762         0.260905      0.283430     -0.017746
Au     16.03732     16.35919     16.94735        -0.283430     -0.260905      0.017746
Au     13.45109     17.54326     16.94735         0.260905     -0.283430      0.017746
Au     14.85325     13.77296     16.94735        -0.260905      0.283430      0.017746
Au     12.26702     14.95703     16.94735         0.283430      0.260905      0.017746
Au     14.15217     15.65811     14.60247        -0.000000      0.000000      0.000000
Au     12.22199     17.58829     14.60247         0.029060     -0.029060      0.000000
Au     16.08235     13.72793     14.60247        -0.029060      0.029060     -0.000000
Au     12.22199     13.72793     14.60247         0.029060      0.029060     -0.000000
Au     16.08235     17.58829     14.60247        -0.029060     -0.029060     -0.000000
