13
# total energy = -24.87168603 eVAu     16.05243     15.18234     11.49448        -0.088976      0.088976      1.117577
Au     14.13195     17.10285     11.49448         0.088976     -0.088976      1.117577
Au     18.23177     15.18234     13.67382        -1.117577      0.088976      0.088976
Au     11.95261     17.10285     13.67382         1.117577     -0.088976      0.088976
Au     14.13195     19.28219     13.67382         0.088976     -1.117577      0.088976
Au     16.05243     13.00303     13.67382        -0.088976      1.117577      0.088976
Au     15.09219     16.14261     14.63406        -0.000000     -0.000000     -0.000000
Au     14.13195     15.18234     17.77364         0.088976      0.088976     -1.117577
Au     16.05243     17.10285     17.77364        -0.088976     -0.088976     -1.117577
Au     18.23177     17.10285     15.59430        -1.117577     -0.088976     -0.088976
Au     11.95261     15.18234     15.59430         1.117577      0.088976     -0.088976
Au     16.05243     19.28219     15.59430        -0.088976     -1.117577     -0.088976
Au     14.13195     13.00303     15.59430         0.088976      1.117577     -0.088976
