13
# total energy = -29.84075576 eVAu     15.98579     17.75419     13.43445         0.003183      0.041492      0.030716
Au     14.42323     15.55190     13.03992        -0.056197     -0.009408     -0.071378
Au     17.23162     15.54916     12.47544         0.015488     -0.071014      0.039854
Au     13.21812     13.04260     13.31909         0.018305     -0.026488      0.069230
Au     17.88582     13.74072     14.44757        -0.009627      0.001942     -0.060327
Au     15.87153     13.11365     12.58527         0.046231     -0.018429      0.021719
Au     16.33659     18.41409     16.07737         0.009649      0.043826      0.022445
Au     14.50186     15.63524     17.14516        -0.022587     -0.011156     -0.042486
Au     16.98151     15.77122     16.05695         0.030250      0.015762     -0.045133
Au     12.59451     15.01942     15.14166        -0.044870      0.064186     -0.002876
Au     18.53793     17.16317     14.34417         0.039583      0.008154      0.031226
Au     13.87277     17.48639     15.16267        -0.034030     -0.015002      0.057534
Au     15.17323     13.77825     15.22645         0.004622     -0.023864     -0.050524
