13
# total energy = -27.47188583 eVAu     16.01926     15.21551     11.78224        -0.018623      0.018623     -0.062559
Au     14.16512     17.06968     11.78224         0.018623     -0.018623     -0.062559
Au     17.94401     15.21551     13.70699         0.062559      0.018623      0.018623
Au     12.24037     17.06968     13.70699        -0.062559     -0.018623      0.018623
Au     14.16512     18.99443     13.70699         0.018623      0.062559      0.018623
Au     16.01926     13.29079     13.70699        -0.018623     -0.062559      0.018623
Au     15.09219     16.14261     14.63406         0.000000      0.000000     -0.000000
Au     14.16512     15.21551     17.48588         0.018623      0.018623      0.062559
Au     16.01926     17.06968     17.48588        -0.018623     -0.018623      0.062559
Au     17.94401     17.06968     15.56113         0.062559     -0.018623     -0.018623
Au     12.24037     15.21551     15.56113        -0.062559      0.018623     -0.018623
Au     16.01926     18.99443     15.56113        -0.018623      0.062559     -0.018623
Au     14.16512     13.29079     15.56113         0.018623     -0.062559     -0.018623
