13
# total energy = -30.29084821 eVAu     13.23066     15.99578     12.32243        -0.010969     -0.099828      0.005149
Au     15.85660     16.64487     13.18264        -0.142793      0.081057     -0.095017
Au     11.61306     15.06246     14.35202        -0.044784      0.035133     -0.034338
Au     14.27860     14.05055     14.03381         0.095124      0.106546      0.100551
Au     17.06898     14.19038     13.54773         0.053892     -0.014646      0.008434
Au     15.36611     14.50349     11.41701        -0.016176      0.032368     -0.052148
Au     15.98642     14.94095     16.04851        -0.018863     -0.100633     -0.006986
Au     16.02728     17.99307     15.51891         0.009105     -0.105123      0.027853
Au     14.62780     16.82086     17.69792         0.081435     -0.016247      0.026528
Au     17.43575     16.74005     17.55883         0.046550      0.026863      0.052960
Au     18.21388     16.28665     14.89441         0.000275     -0.005929      0.084722
Au     13.58346     16.98333     14.95990        -0.043385      0.066919     -0.173934
Au     13.21280     14.76534     16.56313        -0.009412     -0.006480      0.056225
