13
# total energy = -30.01714732 eVAu     13.03865     16.44188     12.07301         0.019593      0.026995     -0.013820
Au     14.85742     17.50719     14.00053         0.000673      0.009291     -0.003503
Au     11.07016     15.19068     13.59550         0.022061     -0.011790      0.028120
Au     17.49357     16.34873     14.06741         0.027674     -0.006833     -0.011643
Au     12.01402     17.65043     14.44170        -0.025920      0.009108      0.006435
Au     13.50026     13.94699     13.28705         0.006966     -0.004045      0.010233
Au     15.60657     15.50194     12.25752        -0.000632     -0.000036      0.018286
Au     12.99234     15.34176     15.66498         0.016643     -0.007826      0.002328
Au     16.52746     17.84279     16.29338        -0.010778      0.035556     -0.014733
Au     13.79831     17.99372     16.50298         0.001730     -0.014539     -0.010615
Au     17.73471     15.35669     16.63788        -0.022289     -0.024392     -0.007533
Au     15.11793     15.67914     17.40707        -0.012412     -0.006851     -0.000472
Au     15.65829     14.44192     14.95113        -0.023310     -0.004638     -0.003083
