13
# total energy = -29.83957339 eVAu     14.41220     16.09553     13.46740         0.036372      0.132678     -0.102979
Au     11.66719     16.66367     12.83413         0.055239     -0.026366      0.046216
Au     13.30459     14.86872     11.11611         0.036325     -0.002176      0.070916
Au     11.07177     13.98985     12.48384        -0.074257     -0.120441      0.054777
Au     17.26143     15.91068     13.79872        -0.070986     -0.028819     -0.003314
Au     13.57552     13.13176     13.32117        -0.057887      0.081546      0.100665
Au     15.84483     14.25528     12.07015         0.074031      0.063427     -0.138319
Au     15.62377     17.70548     15.51657        -0.052905     -0.055382     -0.026196
Au     14.26717     15.42545     16.47345         0.058097     -0.095693     -0.088172
Au     17.04011     15.56143     16.52907         0.012876     -0.096010      0.115841
Au     12.86631     17.51750     15.19390        -0.010411      0.164741     -0.041082
Au     12.02285     14.83404     14.95094         0.093507     -0.088190     -0.061367
Au     15.82046     13.72367     14.84357        -0.100001      0.070683      0.073016
