13
# total energy = -29.50281660 eVAu     14.72753     17.36255     11.71284        -0.102290     -0.059254     -0.071718
Au     15.72831     19.68014     13.15089         0.181356     -0.053102     -0.062354
Au     17.01932     17.14828     13.26146        -0.012840      0.010660      0.050984
Au     13.69190     18.04108     14.14913        -0.066838     -0.146218     -0.038894
Au     13.14676     15.57926     12.92533        -0.013547      0.046311     -0.009221
Au     15.85715     14.72203     13.27126        -0.159383     -0.124350     -0.053366
Au     15.57201     15.91704     15.67455        -0.070446      0.093036      0.124715
Au     16.94630     18.92650     15.38420        -0.029700      0.139488     -0.061963
Au     14.52453     18.22423     16.70100         0.218760     -0.170424      0.353686
Au     17.35746     17.59452     17.58899        -0.193509     -0.167505     -0.041411
Au     12.80229     16.06071     15.87031         0.347203      0.168301     -0.253338
Au     13.64213     13.65216     14.70500         0.044573     -0.021258      0.023981
Au     18.26377     15.98884     15.39400        -0.143338      0.284314      0.038899
