13
# total energy = -29.69379107 eVAu     14.32783     18.29177     14.63983        -0.371072      0.726192      0.002006
Au     18.07177     15.29339     14.61409        -0.875971     -1.759730      0.167107
Au     13.45434     13.70288     14.63499         0.552166     -1.008292     -0.086146
Au     14.41073     11.09651     14.38909         0.126273      1.034693      0.111355
Au     11.63993     18.80537     14.39091         0.617946     -0.482977      0.099797
Au     19.55966     17.28088     14.40502         1.259262      1.041837     -0.145079
Au     16.15877     13.22596     14.62799         0.371072     -0.726192     -0.002006
Au     12.41480     16.22434     14.65373         0.875971      1.759730     -0.167107
Au     17.03223     17.81485     14.63283        -0.552166      1.008292      0.086146
Au     16.07587     20.42122     14.87873        -0.126273     -1.034693     -0.111355
Au     18.84667     12.71236     14.87691        -0.617946      0.482977     -0.099797
Au     10.92694     14.23685     14.86280        -1.259262     -1.041837      0.145079
Au     15.24330     15.75888     14.63391        -0.000000     -0.000000      0.000000
