13
# total energy = -25.12675466 eVAu     14.68680     16.09098      9.94482        -0.000000      0.000000     -0.082082
Au     13.58510     13.96886     11.22960         0.201693      0.389028      0.044657
Au     15.78850     18.21313     11.22960        -0.201693     -0.389028      0.044657
Au     16.80895     14.98928     11.22960        -0.389028      0.201693      0.044657
Au     12.56465     17.19271     11.22960         0.389028     -0.201693      0.044657
Au     14.68680     16.09098     12.69174        -0.000000      0.000000      0.134928
Au     14.68680     16.09098     20.69118        -0.000000      0.000000      0.082082
Au     13.58510     13.96886     19.40640         0.201693      0.389028     -0.044657
Au     16.80895     14.98928     19.40640        -0.389028      0.201693     -0.044657
Au     15.78850     18.21313     19.40640        -0.201693     -0.389028     -0.044657
Au     12.56465     17.19271     19.40640         0.389028     -0.201693     -0.044657
Au     14.68680     16.09098     17.94426        -0.000000      0.000000     -0.134928
Au     14.68680     16.09098     15.31800        -0.000000      0.000000      0.000000
