13
# total energy = -30.34610470 eVAu     13.13685     15.80983     12.23823        -0.027887     -0.068661     -0.026535
Au     15.73247     16.71639     13.06740        -0.021672      0.059273      0.060002
Au     11.57303     15.10727     14.36937        -0.089645     -0.019885     -0.033089
Au     14.34843     14.15739     14.10277        -0.012630      0.006934     -0.016305
Au     17.08498     14.30903     13.51472         0.044179      0.007564      0.059447
Au     15.40080     14.53864     11.37672        -0.018459     -0.030367     -0.092438
Au     16.05145     14.84971     16.14845        -0.059179     -0.010390     -0.071789
Au     15.99825     17.82016     15.51469        -0.009154     -0.020925     -0.006241
Au     14.72213     16.75920     17.76605         0.016569      0.026042      0.082168
Au     17.49465     16.74097     17.63308        -0.026652     -0.019509     -0.027860
Au     18.24580     16.23446     15.00951         0.080117      0.017144      0.032564
Au     13.51373     17.04629     14.80244         0.074027      0.043560     -0.014413
Au     13.19881     14.88845     16.55381         0.050387      0.009221      0.054492
