13
# total energy = -29.85756738 eVAu     14.41965     16.12300     13.44590         0.034612      0.126695     -0.100231
Au     11.65515     16.65418     12.84022         0.065426     -0.033681      0.034343
Au     13.29763     14.85390     11.11731         0.025510      0.010621      0.076407
Au     11.06003     13.97627     12.48696        -0.052303     -0.092484      0.045272
Au     17.26784     15.89947     13.80882        -0.079267     -0.014816      0.004381
Au     13.57315     13.14082     13.32764        -0.019411      0.053694      0.073980
Au     15.84549     14.27307     12.06197         0.054530      0.043287     -0.100570
Au     15.62500     17.69938     15.53174        -0.038256     -0.060272     -0.037292
Au     14.27093     15.42044     16.46393         0.017152     -0.064538     -0.063327
Au     17.04557     15.55244     16.54382         0.005952     -0.076707      0.086815
Au     12.87353     17.52856     15.17935        -0.010364      0.119979     -0.027781
Au     12.03200     14.83025     14.94515         0.073575     -0.050244     -0.025602
Au     15.81224     13.73128     14.84623        -0.077157      0.038465      0.033604
