13
# total energy = -29.97101154 eVAu     15.11890     16.68058     13.92424         0.004626      0.021722     -0.012435
Au     12.52147     16.99217     13.14881        -0.001287      0.005401      0.022897
Au     14.24326     15.20842     11.79534         0.001185      0.004950     -0.007870
Au     14.36443     13.69297     14.11415        -0.002996     -0.000827      0.000094
Au     16.70101     14.37502     12.90948        -0.002702      0.000051      0.013160
Au     15.82362     17.62341     16.42438        -0.004661     -0.000674     -0.001345
Au     13.91494     16.38812     17.90472        -0.003292     -0.005298     -0.001695
Au     16.62713     15.25162     17.74145        -0.018316      0.006616     -0.000108
Au     12.69157     15.40688     15.42242         0.012109      0.014861     -0.002305
Au     17.48340     15.89809     15.12703        -0.002550      0.001948     -0.017062
Au     13.15817     18.06754     15.69226         0.009595     -0.022169     -0.022153
Au     14.45248     13.87325     16.84434         0.005857     -0.021197      0.026853
Au     16.86236     13.29286     15.57246         0.002433     -0.005384      0.001971
