13
# total energy = -29.71103192 eVAu     14.38300     15.98742     13.55236         0.060462      0.218617     -0.170613
Au     11.78695     16.70118     12.82800        -0.286236     -0.008585     -0.045003
Au     13.37298     14.96309     11.16397        -0.148621     -0.161668     -0.190368
Au     11.09896     14.01211     12.48562         0.022546     -0.044265      0.068654
Au     17.16552     15.96209     13.73518         0.268166     -0.051938      0.093405
Au     13.58672     13.13379     13.34282        -0.253812     -0.112313     -0.095502
Au     15.86836     14.18091     12.06372         0.080460      0.080276     -0.148808
Au     15.57941     17.70025     15.39917         0.131418      0.098698      0.237439
Au     14.25242     15.40935     16.46274         0.221088     -0.012234      0.194584
Au     17.02138     15.57182     16.50104        -0.051687     -0.063116      0.015810
Au     12.82342     17.51776     15.25881        -0.011171      0.180013     -0.056096
Au     12.04170     14.82711     14.96392        -0.235247     -0.132740     -0.116192
Au     15.79737     13.71616     14.84166         0.202635      0.009256      0.212689
