13
# total energy = -28.32616366 eVAu     14.49499     17.07383     11.88144         0.875494      0.191184     -1.063326
Au     15.81675     19.37814     13.73161        -0.349166      0.619504     -0.195140
Au     17.45761     17.38656     12.97496         0.045246     -0.447262     -0.123749
Au     12.96698     17.95700     13.78245        -0.572324      0.593256      0.488182
Au     13.29819     15.19404     13.27195        -0.410387     -0.441623      0.143781
Au     16.15575     14.87646     12.99378         0.199660      0.137626      0.118468
Au     15.31133     16.77721     14.77072        -0.224369     -0.584474      0.035680
Au     17.35391     18.57544     15.73623         0.327887      0.936234     -0.503263
Au     14.52654     18.53068     16.58280         0.068214      0.385580      0.304561
Au     16.75387     16.84519     17.51374        -0.144957     -0.480527      0.917845
Au     12.81970     16.50758     16.05687        -0.123067     -0.369949      0.039946
Au     14.51106     13.98830     15.26162        -0.145460     -0.113220      0.034957
Au     17.81281     15.80692     15.23079         0.453228     -0.426330     -0.197943
