13
# total energy = -29.97105075 eVAu     15.12000     16.68494     13.92072         0.005804      0.015638     -0.019724
Au     12.52047     16.99527     13.15393        -0.000077     -0.007815     -0.012922
Au     14.24537     15.20974     11.79351        -0.005566      0.009325      0.010425
Au     14.36637     13.69406     14.11552        -0.006712      0.003802      0.013637
Au     16.70158     14.37410     12.91029         0.000724     -0.005828     -0.004178
Au     15.82023     17.62239     16.42400         0.009130     -0.005455     -0.006402
Au     13.91165     16.38725     17.90403        -0.006385     -0.004497      0.002540
Au     16.62513     15.25438     17.74172        -0.010799      0.000878     -0.011408
Au     12.69780     15.40937     15.42542         0.008340     -0.023976      0.003488
Au     17.48033     15.89597     15.12286        -0.005017      0.008604      0.008653
Au     13.15815     18.06576     15.68679         0.007804      0.021316      0.006974
Au     14.45311     13.86814     16.85125         0.008294     -0.016782     -0.003564
Au     16.86256     13.28956     15.57104        -0.005541      0.004791      0.012480
