13
# total energy = -30.20649832 eVAu     13.22593     15.90648     12.33354        -0.048151      0.036396     -0.071158
Au     15.86371     16.66994     13.13901        -0.401223      0.202127     -0.509957
Au     11.55575     15.07706     14.35384         0.039325      0.047169     -0.087820
Au     14.32232     14.11586     14.07761         0.022850     -0.110064      0.049538
Au     17.04494     14.29534     13.51692         0.293844     -0.490142      0.035359
Au     15.38318     14.50737     11.35989        -0.083824      0.067834      0.011473
Au     16.03550     14.84901     16.12947         0.006455      0.084629     -0.017061
Au     15.97651     17.84932     15.48163         0.437160      0.305899      0.494997
Au     14.64253     16.79098     17.74265         0.241752      0.064263      0.051350
Au     17.44957     16.77948     17.56891        -0.011725     -0.065570     -0.005437
Au     18.24856     16.25401     14.92362        -0.003743      0.093466      0.234558
Au     13.54507     17.01492     14.95204        -0.364839      0.198715     -0.545021
Au     13.20781     14.86802     16.51810        -0.127883     -0.434720      0.359180
