13
# total energy = -29.44704504 eVAu     14.73930     17.34496     11.71490        -0.185714     -0.064199      0.027424
Au     15.70064     19.67148     13.18055         0.273322     -0.062934      0.000256
Au     17.04112     17.17408     13.24881        -0.030957     -0.086465      0.081994
Au     13.66517     18.04771     14.15385        -0.122386     -0.244064     -0.283570
Au     13.14230     15.56073     12.92569         0.068921      0.135749      0.013955
Au     15.88138     14.71913     13.28406        -0.130770     -0.119071     -0.187442
Au     15.55697     15.94953     15.62357        -0.102091      0.099660      0.281999
Au     16.97240     18.90617     15.40630        -0.104538      0.249575     -0.266027
Au     14.51508     18.23271     16.67200         0.275623     -0.080953      0.531087
Au     17.37321     17.58090     17.59449        -0.172366     -0.248078      0.055421
Au     12.78238     16.08273     15.88128         0.342491      0.064996     -0.302726
Au     13.65258     13.65474     14.71917         0.042943      0.042601      0.038516
Au     18.25694     15.97246     15.38432        -0.154479      0.313184      0.009112
