13
# total energy = -28.14054920 eVAu     14.30992     15.54316     11.84668         0.072152      0.402841     -0.177253
Au     11.99555     16.07971     13.43756         0.095754     -0.116574     -0.102172
Au     15.69707     13.59839     13.29616         0.455545     -0.442746     -0.395661
Au     14.06611     18.19669     13.25054        -0.220694     -0.277899      0.128506
Au     13.02175     13.31923     13.76753        -0.306988      0.057147      0.441846
Au     16.76141     16.26586     13.09414         0.105921     -0.176502      0.170084
Au     17.01214     15.15683     15.74128        -0.095754      0.116574      0.102172
Au     13.31059     17.63824     15.88262        -0.455545      0.442746      0.395661
Au     14.69768     15.69347     17.33225        -0.072152     -0.402841      0.177253
Au     14.50386     15.61830     14.58942        -0.000000     -0.000000     -0.000000
Au     14.94161     13.03991     15.92833         0.220694      0.277899     -0.128506
Au     15.98606     17.91734     15.41131         0.306988     -0.057147     -0.441846
Au     12.24628     14.97071     16.08467        -0.105921      0.176502     -0.170084
