13
# total energy = -29.94910998 eVAu     15.13531     16.66276     13.94271        -0.002288      0.065081      0.040236
Au     12.53568     16.99215     13.14479        -0.089072      0.027050     -0.019067
Au     14.22119     15.22633     11.80570         0.001075     -0.066612     -0.110295
Au     14.28060     13.62864     14.08231         0.019309      0.014107      0.076882
Au     16.63586     14.41157     12.97379         0.074443     -0.052021     -0.061571
Au     15.89848     17.67188     16.42987         0.015628     -0.083756      0.005839
Au     13.99917     16.39293     17.88254        -0.051523      0.026700      0.016768
Au     16.58021     15.20176     17.77703         0.040561      0.069903     -0.091874
Au     12.61584     15.33856     15.39139         0.028700      0.064683      0.007228
Au     17.55594     15.98400     15.11006        -0.028005     -0.042497      0.112191
Au     13.22184     17.98893     15.65501        -0.027421      0.007313      0.070401
Au     14.40324     13.85555     16.81300         0.024428     -0.015226     -0.051777
Au     16.87939     13.39586     15.61288        -0.005835     -0.014725      0.005039
