13
# total energy = -28.52524408 eVAu     11.33874     16.80078     12.17160        -1.198597      1.167625     -1.503890
Au     13.99470     16.39647     12.17604         0.196917      0.837111     -1.055995
Au     16.61472     15.84333     12.39342         1.650045      0.651075     -1.385513
Au     12.22659     14.35524     12.51285        -0.024198     -1.756458     -0.866606
Au     14.90085     13.86993     12.62529        -0.522576     -1.666129     -0.887533
Au     15.47907     17.27910     14.35974         0.685380      1.128752     -0.337903
Au     14.20008     18.50220     16.38105         0.345182      2.086955      0.768408
Au     12.45540     16.56279     16.66389        -1.647731     -0.427444      0.969019
Au     15.12453     16.07844     16.77612         1.308966     -0.964049      1.093865
Au     11.00502     15.70038     14.53023        -1.377551     -0.267450      1.366946
Au     12.74211     17.77578     14.24466        -0.215787      1.293537     -0.375821
Au     13.65510     15.10998     14.70159        -0.281496     -1.370661      0.744105
Au     16.34841     14.73066     14.75487         1.081447     -0.712863      1.470917
