13
# total energy = -26.38335111 eVAu     17.52933     17.10160     13.86005        -0.791770     -0.382449      0.279303
Au     11.52093     15.00056     13.86005         0.791770      0.382449      0.279303
Au     15.44893     19.05528     13.73333        -0.279303     -0.791770      0.382449
Au     13.60133     13.04688     13.73333         0.279303      0.791770      0.382449
Au     15.57565     16.97488     11.77962        -0.382449     -0.279303      0.791770
Au     13.47461     15.12728     11.77962         0.382449      0.279303      0.791770
Au     11.52093     17.10160     15.70762         0.791770     -0.382449     -0.279303
Au     17.52933     15.00056     15.70762        -0.791770      0.382449     -0.279303
Au     15.44893     13.04688     15.83437        -0.279303      0.791770     -0.382449
Au     13.60133     19.05528     15.83437         0.279303     -0.791770     -0.382449
Au     13.47461     16.97488     17.78805         0.382449     -0.279303     -0.791770
Au     15.57565     15.12728     17.78805        -0.382449      0.279303     -0.791770
Au     14.52513     16.05108     14.78385         0.000000      0.000000      0.000000
