13
# total energy = -29.62973755 eVAu     15.01315     16.14010     14.53593         0.276160      0.308789     -0.438721
Au     12.54066     16.96789     13.17025         0.067578      0.113410     -0.194720
Au     14.22679     15.21301     11.85027         0.044580      0.038941      0.108311
Au     14.23645     13.52709     14.01567        -0.045199     -0.051314     -0.069200
Au     16.71707     14.50526     12.92711        -0.189558     -0.014349     -0.115004
Au     16.05527     17.82595     16.46465        -0.043595      0.092219      0.039163
Au     14.00900     16.43453     17.70248        -0.009716      0.047149      0.108835
Au     16.54937     15.29253     17.60151         0.005971     -0.111134      0.169170
Au     12.51343     15.36064     15.32017        -0.173046     -0.253645      0.248970
Au     17.74052     16.07028     15.16614         0.038271      0.045655     -0.054715
Au     13.25995     18.08088     15.63465        -0.077076     -0.043444      0.013557
Au     14.32056     13.81187     16.77324        -0.012110      0.023952      0.027900
Au     16.78054     13.52089     15.45900         0.117740     -0.196231      0.156454
