13
# total energy = -28.03125084 eVAu     14.97057     13.85293     13.87926         0.000000      0.136372     -0.216030
Au     14.97057     18.47891     13.87926         0.000000     -0.136372     -0.216030
Au     13.41177     16.16592     13.12507        -0.216030     -0.000000      0.136372
Au     16.52937     16.16592     13.12507         0.216030     -0.000000      0.136372
Au     14.97057     16.16592     15.43806         0.000000     -0.000000      0.000000
Au     14.97057     13.85293     16.99686         0.000000      0.136372      0.216030
Au     14.97057     18.47891     16.99686         0.000000     -0.136372      0.216030
Au     13.41177     16.16592     17.75105        -0.216030     -0.000000     -0.136372
Au     16.52937     16.16592     17.75105         0.216030     -0.000000     -0.136372
Au     12.65758     14.60712     15.43806         0.136372     -0.216030      0.000000
Au     17.28356     14.60712     15.43806        -0.136372     -0.216030      0.000000
Au     12.65758     17.72472     15.43806         0.136372      0.216030      0.000000
Au     17.28356     17.72472     15.43806        -0.136372      0.216030      0.000000
