13
# total energy = -29.71559491 eVAu     14.38411     15.99156     13.54910         0.050758      0.183362     -0.142655
Au     11.78245     16.70951     12.82576        -0.235159     -0.106070     -0.017236
Au     13.37531     14.96392     11.15456        -0.175507     -0.173734     -0.081977
Au     11.09037     14.00610     12.48373         0.129914      0.018756      0.104848
Au     17.17287     15.96425     13.72916         0.184215     -0.079484      0.163402
Au     13.58643     13.12580     13.34485        -0.268080     -0.013304     -0.119214
Au     15.87250     14.18015     12.05792         0.026762      0.100781     -0.077960
Au     15.57991     17.70991     15.40031         0.124766     -0.013601      0.226273
Au     14.24963     15.40593     16.46970         0.271545      0.023101      0.112249
Au     17.02779     15.56975     16.50931        -0.138901     -0.050402     -0.079370
Au     12.82086     17.52434     15.26006         0.025859      0.100538     -0.079905
Au     12.03756     14.82333     14.96997        -0.189494     -0.099211     -0.201070
Au     15.79841     13.70853     14.84459         0.193322      0.109268      0.192616
