13
# total energy = -29.03005144 eVAu     13.28556     16.03167     12.38577        -0.815911      0.748164     -1.186183
Au     15.82983     16.53516     13.29813         0.237373      1.534749     -0.619323
Au     11.79057     15.06933     14.35665        -2.063356     -0.361029     -0.131489
Au     14.25063     14.09271     13.98972         0.137629     -1.390158      0.440882
Au     17.01450     14.16093     13.59093         1.109730     -0.933666     -0.004474
Au     15.33207     14.54157     11.58780         0.272753     -0.708949     -1.957467
Au     15.89373     15.10293     15.89877         0.215713     -1.536335      0.569844
Au     16.08522     18.01803     15.58809        -0.533300      1.397865     -0.946578
Au     14.66685     16.82253     17.54610        -0.949938      0.370673      1.589965
Au     17.35173     16.71021     17.45733         1.375205     -0.001429      1.759766
Au     18.05967     16.31694     14.89350         1.805057     -0.039283     -0.561894
Au     13.67988     16.85556     14.97903        -0.367052      1.625172     -0.146877
Au     13.26114     14.72022     16.52541        -0.423902     -0.705774      1.193829
