13
# total energy = -30.00318573 eVAu     12.92336     14.05992     12.72782         0.023804      0.054595     -0.076703
Au     16.63222     16.75682     13.83547        -0.234803     -0.122046     -0.201741
Au     13.85543     16.74110     13.10341         0.225755     -0.006105     -0.015112
Au     15.26837     12.56020     12.13453         0.007132      0.042715      0.057493
Au     17.59604     13.98765     13.31408        -0.001267     -0.109682     -0.236153
Au     15.63639     15.20520     11.76656        -0.062978      0.158900      0.092493
Au     14.95473     13.96649     14.50755         0.147925     -0.107767      0.217017
Au     17.23782     17.21388     16.46330        -0.020116     -0.083096      0.064423
Au     14.63230     17.54310     15.66242        -0.045759      0.054651      0.037568
Au     17.27464     14.32262     16.02126        -0.238757      0.124259      0.211867
Au     12.66037     15.45380     15.18679         0.092925     -0.057359      0.109579
Au     19.08560     15.88964     14.78101         0.124607      0.045032     -0.031157
Au     14.92079     15.17847     17.02747        -0.018468      0.005903     -0.229573
