13
# total energy = -29.11722742 eVAu     14.75488     17.15659     11.76589         0.127135      0.220093     -0.013106
Au     15.60255     19.55161     13.45717         0.228784      0.041338     -0.153741
Au     17.20352     17.31478     13.15199        -0.320167     -0.222421     -0.205889
Au     13.36094     18.02687     13.98272         0.192457      0.132463      0.093316
Au     13.14074     15.43399     12.95348        -0.034037     -0.087917      0.092507
Au     16.05012     14.65874     13.29080        -0.030484      0.229331     -0.124678
Au     15.40750     16.26343     15.28150        -0.238810     -0.012336      0.323347
Au     17.16323     18.85973     15.49764        -0.149078     -0.006024      0.141389
Au     14.58763     18.34037     16.73080         0.014989     -0.140197     -0.237401
Au     17.40714     17.30536     17.65328        -0.195558      0.157320     -0.224577
Au     12.72697     16.24784     15.85368         0.096750     -0.233417      0.149714
Au     13.78486     13.73114     14.87090         0.051676      0.044619     -0.029506
Au     18.08938     16.00688     15.29913         0.256343     -0.122850      0.188626
