13
# total energy = -28.81202141 eVAu     14.69785     17.08535     11.80418         0.118944      0.182340      0.004332
Au     15.71221     19.46154     13.62381        -0.106747     -0.055597     -0.105547
Au     17.27108     17.27621     13.01727        -0.036928      0.493881     -0.023973
Au     13.11337     18.02200     13.86535         0.206654      0.218666     -0.093148
Au     13.16662     15.29689     13.05125         0.085337     -0.115438      0.221639
Au     16.17834     14.83641     13.18377        -0.313872     -0.415599      0.057639
Au     15.23842     16.54069     15.03513         0.756095     -0.502998     -0.248855
Au     17.29336     18.79069     15.65211        -0.106258     -0.022001     -0.280875
Au     14.61852     18.44391     16.66651        -0.204903      0.257726      0.296801
Au     17.15704     17.05195     17.63086        -0.042515      0.025554     -0.046953
Au     12.74336     16.33303     15.93073        -0.220365     -0.127588      0.225054
Au     14.11090     13.83423     15.09568        -0.122557      0.102220     -0.266216
Au     17.97839     15.92445     15.23232        -0.012885     -0.041165      0.260102
