13
# total energy = -28.39011051 eVAu     14.60547     17.09832     11.83774        -0.054800      0.034124      0.026363
Au     15.69121     19.52152     13.75706         0.085183     -0.203878     -0.054759
Au     17.51882     17.26980     12.99237        -0.044373      0.352997     -0.039626
Au     12.87633     18.00065     13.80693         0.140499      0.017224     -0.043944
Au     13.32395     15.21143     13.39890        -0.010730     -0.025592     -0.108716
Au     16.18795     14.92492     12.89361        -0.063423     -0.251966      0.090350
Au     15.29352     16.78881     14.70087         0.011586      0.083231      0.185763
Au     17.33952     18.54644     15.62488        -0.063408      0.000815      0.080078
Au     14.54052     18.63368     16.58427         0.106126     -0.026822     -0.087555
Au     16.47439     16.69069     17.45005         0.266086      0.148655     -0.009748
Au     12.93133     16.49391     16.11454        -0.192106     -0.163079      0.052294
Au     14.68232     14.04135     15.38148        -0.190008      0.002563     -0.154894
Au     17.81413     15.67583     15.24626         0.009366      0.031727      0.064393
