13
# total energy = -27.94255633 eVAu     14.80196     17.19504     11.92100        -0.168623     -0.103811      0.016978
Au     15.44762     19.37150     13.74946         0.158409      0.190006      0.016954
Au     17.51273     17.39896     13.01378         0.031343     -0.085797      0.018448
Au     12.87662     18.02205     13.85576         0.056011     -0.047631     -0.077646
Au     13.27185     15.25274     13.39557         0.169388      0.054869      0.096163
Au     16.12795     14.83704     12.85513         0.014373      0.064033      0.011089
Au     15.33183     16.78336     14.67770        -0.031665      0.037661     -0.070361
Au     17.42972     18.47165     15.63922        -0.164388     -0.018731     -0.091645
Au     14.59669     18.80801     16.44162         0.006718     -0.087963      0.108319
Au     16.16981     16.57088     17.33055         0.169944      0.039233     -0.023888
Au     13.08016     16.40702     16.19174        -0.135757      0.002664     -0.000148
Au     14.87033     14.22007     15.49210        -0.101183     -0.091211     -0.087845
Au     17.76218     15.55903     15.22533        -0.004571      0.046678      0.083581
