13
# total energy = -29.90868659 eVAu     12.89396     14.05976     12.69238         0.271809      0.077086      0.128447
Au     16.61895     16.82254     13.72378        -0.026451     -0.168627      0.116429
Au     13.83825     16.74142     13.06455         0.028987      0.025045      0.049965
Au     15.31350     12.56828     12.27439        -0.061841     -0.003902     -0.016285
Au     17.66136     14.01788     13.24934        -0.229044     -0.016280      0.101285
Au     15.57663     15.18008     11.74560         0.102385      0.098701     -0.012347
Au     15.02180     14.20002     14.49924        -0.087749     -0.260353     -0.095217
Au     17.18578     17.05747     16.48481         0.023327      0.179897     -0.017461
Au     14.62258     17.46789     15.64048        -0.039470      0.182646     -0.055562
Au     17.29449     14.24469     16.10030         0.063946     -0.071862     -0.182125
Au     12.63397     15.47249     15.18539         0.089962     -0.097626      0.029741
Au     19.03867     15.86608     14.79503         0.109779      0.067852     -0.101838
Au     14.97810     15.18028     17.07635        -0.245639     -0.012578      0.054966
