13
# total energy = -29.59095883 eVAu     15.01791     16.10087     14.57611         0.208667      0.323527     -0.363708
Au     12.55367     16.96910     13.17676         0.048778      0.092006     -0.183314
Au     14.23239     15.21793     11.86581         0.024842      0.024095      0.076181
Au     14.23353     13.50273     14.00930        -0.085420      0.005856     -0.082263
Au     16.72160     14.53238     12.92919        -0.156046     -0.066852     -0.123885
Au     16.04944     17.85263     16.47018         0.017617     -0.010880     -0.016691
Au     14.00070     16.43397     17.69446         0.033275      0.026401      0.109152
Au     16.55385     15.30906     17.57128        -0.041717     -0.091954      0.232722
Au     12.48955     15.35730     15.32867        -0.089720     -0.234775      0.173376
Au     17.75366     16.06509     15.15575         0.012797      0.127290     -0.015787
Au     13.27878     18.08149     15.62437        -0.104148     -0.029714      0.015417
Au     14.31489     13.80960     16.76267        -0.040649      0.036430      0.081666
Au     16.76277     13.51877     15.45655         0.171725     -0.201430      0.097136
