13
# total energy = -28.89841178 eVAu     14.48548     15.85827     11.80296         0.120703      0.056660     -0.040463
Au     12.11533     15.91324     13.23341        -0.039209     -0.056553     -0.060022
Au     15.54277     13.49744     13.08579        -0.124672      0.181615     -0.119106
Au     13.75773     18.28260     13.40745        -0.015796     -0.235307     -0.059827
Au     12.91652     13.21601     14.21796         0.135826      0.057126     -0.068947
Au     16.90555     16.03990     13.24505         0.238322     -0.163797     -0.259600
Au     16.89236     15.32330     15.94543         0.039209      0.056553      0.060022
Au     13.46489     17.73919     16.09299         0.124672     -0.181615      0.119106
Au     14.52212     15.37836     17.37597        -0.120703     -0.056660      0.040463
Au     14.50386     15.61830     14.58942         0.000000     -0.000000     -0.000000
Au     15.24999     12.95400     15.77142         0.015796      0.235307      0.059827
Au     16.09129     18.02056     14.96088        -0.135826     -0.057126      0.068947
Au     12.10214     15.19667     15.93376        -0.238322      0.163797      0.259600
