13
# total energy = -28.04367490 eVAu     14.97057     13.86276     13.88123         0.000000      0.043570     -0.273045
Au     14.97057     18.46908     13.88123         0.000000     -0.043570     -0.273045
Au     13.41374     16.16592     13.13490        -0.273045      0.000000      0.043570
Au     16.52740     16.16592     13.13490         0.273045      0.000000      0.043570
Au     14.97057     16.16592     15.43806         0.000000      0.000000     -0.000000
Au     14.97057     13.86276     16.99489         0.000000      0.043570      0.273045
Au     14.97057     18.46908     16.99489         0.000000     -0.043570      0.273045
Au     13.41374     16.16592     17.74122        -0.273045      0.000000     -0.043570
Au     16.52740     16.16592     17.74122         0.273045      0.000000     -0.043570
Au     12.66741     14.60909     15.43806         0.043570     -0.273045     -0.000000
Au     17.27373     14.60909     15.43806        -0.043570     -0.273045     -0.000000
Au     12.66741     17.72275     15.43806         0.043570      0.273045     -0.000000
Au     17.27373     17.72275     15.43806        -0.043570      0.273045     -0.000000
