13
# total energy = -26.81052965 eVAu     13.83115     18.05201     14.61511         0.176919      0.275252      0.022677
Au     17.93355     15.85639     14.61431         0.123649     -0.548573      0.024408
Au     13.97874     13.39038     14.61481        -0.509729      0.004496      0.023638
Au     14.02014     10.87804     14.25833         0.187628     -0.238384      0.007892
Au     11.62689     19.26355     14.26134        -0.274412     -0.050858      0.011255
Au     20.09018     17.14448     14.25272         0.112277      0.268706      0.008686
Au     16.65545     13.46572     14.65271        -0.176919     -0.275252     -0.022677
Au     12.55302     15.66134     14.65351        -0.123649      0.548573     -0.024408
Au     16.50783     18.12735     14.65301         0.509729     -0.004496     -0.023638
Au     16.46646     20.63969     15.00949        -0.187628      0.238384     -0.007892
Au     18.85971     12.25418     15.00648         0.274412      0.050858     -0.011255
Au     10.39642     14.37325     15.01510        -0.112277     -0.268706     -0.008686
Au     15.24330     15.75888     14.63391         0.000000      0.000000      0.000000
