13
# total energy = -27.95019877 eVAu     14.24708     15.48706     11.85596        -0.076794     -0.043645     -0.494085
Au     12.00446     16.13631     13.56083        -0.408375      0.103485     -0.204173
Au     15.86695     13.60980     13.31383         0.267589     -0.397727     -0.224124
Au     14.20984     17.96638     13.22231        -0.064067      0.476726     -0.243866
Au     13.05617     13.48074     13.67866        -0.291979     -0.402021     -0.157746
Au     16.68284     16.33614     13.08603         0.413439      0.174220     -0.280515
Au     17.00323     15.10023     15.61801         0.408375     -0.103485      0.204173
Au     13.14071     17.62683     15.86495        -0.267589      0.397727      0.224124
Au     14.76052     15.74957     17.32297         0.076794      0.043645      0.494085
Au     14.50386     15.61830     14.58942         0.000000      0.000000     -0.000000
Au     14.79788     13.27022     15.95656         0.064067     -0.476726      0.243866
Au     15.95164     17.75583     15.50018         0.291979      0.402021      0.157746
Au     12.32485     14.90043     16.09278        -0.413439     -0.174220      0.280515
