13
# total energy = -30.14310582 eVAu     11.94487     16.07416     12.90926        -0.020334     -0.008121      0.002305
Au     16.45534     17.04333     13.33923        -0.019692     -0.012157     -0.024696
Au     13.85537     17.67698     14.02602        -0.014439      0.001647      0.014216
Au     12.38154     13.37109     13.43586         0.029171      0.010497     -0.015868
Au     16.96659     14.43576     14.13324        -0.033659     -0.016114     -0.002325
Au     14.55853     15.04812     12.80309         0.046958      0.010967      0.002914
Au     15.62456     15.17878     16.47359         0.008503     -0.022386     -0.018418
Au     16.03430     18.77843     15.38128         0.001628     -0.015457      0.004251
Au     14.00697     17.37390     16.83181        -0.026063      0.018734     -0.000619
Au     16.57992     17.55427     17.81262         0.007814     -0.002458      0.020349
Au     12.98847     15.28258     15.39485         0.002656      0.015587     -0.002727
Au     17.95535     16.49302     15.68912         0.008070     -0.005238     -0.010198
Au     14.66371     13.05460     14.85384         0.009387      0.024499      0.030814
