13
# total energy = -30.13771176 eVAu     14.33004     18.33078     14.64078        -0.337961      0.465295     -0.003232
Au     18.03953     15.20395     14.62004        -0.216011      0.504056     -0.009202
Au     13.47531     13.66891     14.63062        -0.295588     -0.203074     -0.003689
Au     14.43122     11.14951     14.39988         0.043939      0.465847      0.053134
Au     11.66632     18.77324     14.40065         0.231040      0.229102      0.015139
Au     19.60592     17.32490     14.40483        -0.148843     -0.004893      0.019231
Au     16.15656     13.18695     14.62704         0.337961     -0.465295      0.003232
Au     12.44704     16.31378     14.64778         0.216011     -0.504056      0.009202
Au     17.01126     17.84882     14.63720         0.295588      0.203074      0.003689
Au     16.05538     20.36822     14.86794        -0.043939     -0.465847     -0.053134
Au     18.82028     12.74449     14.86717        -0.231040     -0.229102     -0.015139
Au     10.88068     14.19283     14.86299         0.148843      0.004893     -0.019231
Au     15.24330     15.75888     14.63391        -0.000000      0.000000      0.000000
