13
# total energy = -25.12669945 eVAu     14.68680     16.09098      9.94631        -0.000000      0.000000     -0.102718
Au     13.58520     13.96904     11.22957         0.197615      0.381172      0.045275
Au     15.78840     18.21295     11.22957        -0.197615     -0.381172      0.045275
Au     16.80877     14.98938     11.22957        -0.381172      0.197615      0.045275
Au     12.56483     17.19261     11.22957         0.381172     -0.197615      0.045275
Au     14.68680     16.09098     12.69005        -0.000000      0.000000      0.165294
Au     14.68680     16.09098     20.68969        -0.000000     -0.000000      0.102718
Au     13.58520     13.96904     19.40643         0.197615      0.381172     -0.045275
Au     16.80877     14.98938     19.40643        -0.381172      0.197615     -0.045275
Au     15.78840     18.21295     19.40643        -0.197615     -0.381172     -0.045275
Au     12.56483     17.19261     19.40643         0.381172     -0.197615     -0.045275
Au     14.68680     16.09098     17.94595        -0.000000     -0.000000     -0.165294
Au     14.68680     16.09098     15.31800        -0.000000      0.000000     -0.000000
