13
# total energy = -30.32777857 eVAu     13.20381     15.89984     12.30632        -0.082859     -0.071591     -0.090893
Au     15.79904     16.69895     13.10281        -0.045678     -0.050058     -0.010501
Au     11.56806     15.08563     14.34719         0.069500      0.023778      0.055785
Au     14.33473     14.11666     14.09338        -0.029786      0.017245     -0.042469
Au     17.08044     14.25143     13.52745        -0.026359      0.070261     -0.021415
Au     15.37595     14.51946     11.36985         0.043842      0.027802      0.075276
Au     16.02909     14.86281     16.11777         0.017204      0.049918      0.012771
Au     16.00440     17.86949     15.51271         0.019072      0.019619      0.022334
Au     14.67799     16.78665     17.73503         0.026253     -0.024715      0.011126
Au     17.46507     16.76360     17.59112         0.018337     -0.053410      0.034550
Au     18.23152     16.25726     14.95602        -0.000174     -0.019716      0.030175
Au     13.52998     17.03638     14.87703        -0.008866     -0.055580     -0.037466
Au     13.20129     14.82963     16.56056        -0.000485      0.066447     -0.039273
